<?xml version="1.0" encoding="UTF-8"?>

<!-- generated on 2024-12-04 18:35:51.589258 by main.py UNKNOWN
<configuration>
    <net-file value="/root/myvenv/nextpj/src/backend/data/scenario_1733337335/osm.net.xml.gz"/>
    <output-trip-file value="/root/myvenv/nextpj/src/backend/data/scenario_1733337335/osm.truck.trips.xml"/>
    <route-file value="/root/myvenv/nextpj/src/backend/data/scenario_1733337335/osm.truck.rou.xml"/>
    <prefix value="truck"/>
    <vehicle-class value="truck"/>
    <fringe-factor value="20.0"/>
    <validate value="True"/>
    <insertion-density value="80.0"/>
</configuration>
-->

<!-- generated on 2024-12-04 18:35:51 by Eclipse SUMO duarouter Version 1.21.0
<duarouterConfiguration xmlns:xsi="http://www.w3.org/2001/XMLSchema-instance" xsi:noNamespaceSchemaLocation="http://sumo.dlr.de/xsd/duarouterConfiguration.xsd">

    <input>
        <net-file value="/root/myvenv/nextpj/src/backend/data/scenario_1733337335/osm.net.xml.gz"/>
        <route-files value="/root/myvenv/nextpj/src/backend/data/scenario_1733337335/osm.truck.trips.xml"/>
    </input>

    <output>
        <output-file value="/root/myvenv/nextpj/src/backend/data/scenario_1733337335/osm.truck.trips.xml.tmp"/>
        <alternatives-output value="NUL"/>
        <write-trips value="true"/>
    </output>

    <time>
        <begin value="0.0"/>
        <end value="3600.0"/>
    </time>

    <report>
        <no-warnings value="true"/>
        <ignore-errors value="true"/>
        <no-step-log value="true"/>
    </report>

</duarouterConfiguration>
-->

<routes xmlns:xsi="http://www.w3.org/2001/XMLSchema-instance" xsi:noNamespaceSchemaLocation="http://sumo.dlr.de/xsd/routes_file.xsd">
    <vType id="truck_truck" vClass="truck"/>
    <trip id="truck1" type="truck_truck" depart="0.49" from="170605264" to="170601197"/>
    <trip id="truck5" type="truck_truck" depart="2.47" from="170605264" to="206489382-AddedOffRampEdge"/>
    <trip id="truck6" type="truck_truck" depart="2.96" from="1120029182" to="170601197"/>
    <trip id="truck8" type="truck_truck" depart="3.94" from="170605264" to="43947365"/>
    <trip id="truck12" type="truck_truck" depart="5.92" from="70707218" to="206489379"/>
    <trip id="truck14" type="truck_truck" depart="6.90" from="70707218" to="43947365"/>
    <trip id="truck18" type="truck_truck" depart="8.87" from="70707218" to="43947365"/>
    <trip id="truck19" type="truck_truck" depart="9.37" from="70707218" to="43947365"/>
    <trip id="truck21" type="truck_truck" depart="10.35" from="170605264" to="170601197"/>
    <trip id="truck24" type="truck_truck" depart="11.83" from="43948501" to="206489379"/>
    <trip id="truck26" type="truck_truck" depart="12.82" from="170605264" to="43947369#1"/>
    <trip id="truck28" type="truck_truck" depart="13.80" from="170605264" to="43947365"/>
    <trip id="truck30" type="truck_truck" depart="14.79" from="70707218" to="43947365"/>
    <trip id="truck31" type="truck_truck" depart="15.28" from="42064232" to="43947365"/>
    <trip id="truck33" type="truck_truck" depart="16.27" from="170605264" to="1120029182"/>
    <trip id="truck35" type="truck_truck" depart="17.26" from="170605264" to="43947369#1-AddedOnRampEdge"/>
    <trip id="truck36" type="truck_truck" depart="17.75" from="70707218" to="206489379"/>
    <trip id="truck37" type="truck_truck" depart="18.24" from="43948501" to="206489379"/>
    <trip id="truck38" type="truck_truck" depart="18.73" from="70707218" to="206489379"/>
    <trip id="truck39" type="truck_truck" depart="19.23" from="170605264" to="170601197"/>
    <trip id="truck46" type="truck_truck" depart="22.68" from="43948501" to="206489379"/>
    <trip id="truck48" type="truck_truck" depart="23.66" from="70707218-AddedOffRampEdge" to="406802122"/>
    <trip id="truck52" type="truck_truck" depart="25.64" from="170605264" to="43947365"/>
    <trip id="truck53" type="truck_truck" depart="26.13" from="1139168722" to="206489379"/>
    <trip id="truck55" type="truck_truck" depart="27.12" from="70707218" to="170601197"/>
    <trip id="truck58" type="truck_truck" depart="28.59" from="170605269" to="43947365"/>
    <trip id="truck62" type="truck_truck" depart="30.57" from="1118511056" to="206489379"/>
    <trip id="truck66" type="truck_truck" depart="32.54" from="70707218" to="43947369#1-AddedOnRampEdge"/>
    <trip id="truck67" type="truck_truck" depart="33.03" from="1120029196" to="206489379-AddedOnRampEdge"/>
    <trip id="truck68" type="truck_truck" depart="33.52" from="1120029190" to="43947368"/>
    <trip id="truck69" type="truck_truck" depart="34.02" from="43948501" to="170601197"/>
    <trip id="truck71" type="truck_truck" depart="35.00" from="170605264" to="43947368"/>
    <trip id="truck75" type="truck_truck" depart="36.98" from="70707218-AddedOffRampEdge" to="43947365"/>
    <trip id="truck78" type="truck_truck" depart="38.45" from="206489382-AddedOffRampEdge" to="43947365"/>
    <trip id="truck79" type="truck_truck" depart="38.95" from="170605264" to="170601197"/>
    <trip id="truck81" type="truck_truck" depart="39.93" from="170605264" to="43947368"/>
    <trip id="truck83" type="truck_truck" depart="40.92" from="170605264" to="43947365"/>
    <trip id="truck84" type="truck_truck" depart="41.41" from="170605264" to="170601197"/>
    <trip id="truck85" type="truck_truck" depart="41.91" from="70707218" to="43947365"/>
    <trip id="truck86" type="truck_truck" depart="42.40" from="277654571" to="43947368"/>
    <trip id="truck87" type="truck_truck" depart="42.89" from="43948501-AddedOffRampEdge" to="170601197"/>
    <trip id="truck88" type="truck_truck" depart="43.38" from="1122897134" to="206489379"/>
    <trip id="truck89" type="truck_truck" depart="43.88" from="277654571" to="206489379"/>
    <trip id="truck92" type="truck_truck" depart="45.36" from="277654571" to="206489379"/>
    <trip id="truck93" type="truck_truck" depart="45.85" from="70707218" to="170601197"/>
    <trip id="truck96" type="truck_truck" depart="47.33" from="170605264" to="43947368-AddedOnRampEdge"/>
    <trip id="truck97" type="truck_truck" depart="47.82" from="277654571" to="43947368"/>
    <trip id="truck101" type="truck_truck" depart="49.79" from="70707218" to="170601197"/>
    <trip id="truck103" type="truck_truck" depart="50.78" from="277654571" to="1120029189"/>
    <trip id="truck105" type="truck_truck" depart="51.77" from="170605264" to="43947368"/>
    <trip id="truck106" type="truck_truck" depart="52.26" from="277654571" to="206489379"/>
    <trip id="truck107" type="truck_truck" depart="52.75" from="70707218" to="70707218-AddedOffRampEdge"/>
    <trip id="truck109" type="truck_truck" depart="53.74" from="170605264" to="170605269"/>
    <trip id="truck110" type="truck_truck" depart="54.23" from="70707218" to="43947365"/>
    <trip id="truck113" type="truck_truck" depart="55.71" from="277654571" to="43947368"/>
    <trip id="truck118" type="truck_truck" depart="58.17" from="70707218" to="170601197"/>
    <trip id="truck120" type="truck_truck" depart="59.16" from="277654571" to="43947365"/>
    <trip id="truck121" type="truck_truck" depart="59.65" from="406802122" to="43947369#1"/>
    <trip id="truck122" type="truck_truck" depart="60.15" from="170605264" to="43947365"/>
    <trip id="truck125" type="truck_truck" depart="61.63" from="206489380" to="43947368"/>
    <trip id="truck126" type="truck_truck" depart="62.12" from="1120029191" to="206489379"/>
    <trip id="truck127" type="truck_truck" depart="62.61" from="70707218-AddedOffRampEdge" to="70707218-AddedOffRampEdge"/>
    <trip id="truck129" type="truck_truck" depart="63.60" from="170605264" to="43947369#1"/>
    <trip id="truck132" type="truck_truck" depart="65.08" from="70707218" to="43947365"/>
    <trip id="truck134" type="truck_truck" depart="66.06" from="43948501" to="1118511056"/>
    <trip id="truck136" type="truck_truck" depart="67.05" from="43948501" to="43947369#1"/>
    <trip id="truck139" type="truck_truck" depart="68.53" from="170605264" to="43947365"/>
    <trip id="truck140" type="truck_truck" depart="69.02" from="43948501" to="170601197"/>
    <trip id="truck141" type="truck_truck" depart="69.51" from="43948501" to="170601197"/>
    <trip id="truck142" type="truck_truck" depart="70.01" from="277654571" to="43947368"/>
    <trip id="truck145" type="truck_truck" depart="71.49" from="1118511056" to="43947368"/>
    <trip id="truck146" type="truck_truck" depart="71.98" from="43948501" to="170601197"/>
    <trip id="truck150" type="truck_truck" depart="73.95" from="70707218" to="42064105"/>
    <trip id="truck151" type="truck_truck" depart="74.44" from="70707218" to="43947365"/>
    <trip id="truck152" type="truck_truck" depart="74.94" from="170605264" to="170601197"/>
    <trip id="truck154" type="truck_truck" depart="75.92" from="43948501" to="43947368"/>
    <trip id="truck155" type="truck_truck" depart="76.42" from="70707218" to="170601197"/>
    <trip id="truck157" type="truck_truck" depart="77.40" from="43948501" to="43947368"/>
    <trip id="truck158" type="truck_truck" depart="77.89" from="277654571" to="43947365"/>
    <trip id="truck159" type="truck_truck" depart="78.39" from="170605264" to="43947368-AddedOnRampEdge"/>
    <trip id="truck162" type="truck_truck" depart="79.87" from="1120029181" to="43947365"/>
    <trip id="truck164" type="truck_truck" depart="80.85" from="43948501-AddedOffRampEdge" to="43947368"/>
    <trip id="truck165" type="truck_truck" depart="81.35" from="660731151" to="170601197"/>
    <trip id="truck166" type="truck_truck" depart="81.84" from="43948501" to="1139168722"/>
    <trip id="truck168" type="truck_truck" depart="82.82" from="170605264" to="43947368"/>
    <trip id="truck169" type="truck_truck" depart="83.32" from="277654571" to="206489379"/>
    <trip id="truck170" type="truck_truck" depart="83.81" from="43948501" to="170601197"/>
    <trip id="truck172" type="truck_truck" depart="84.80" from="206489382" to="43947368"/>
    <trip id="truck173" type="truck_truck" depart="85.29" from="70707218" to="170601197"/>
    <trip id="truck174" type="truck_truck" depart="85.78" from="43948501" to="206489379"/>
    <trip id="truck177" type="truck_truck" depart="87.26" from="70707218" to="170601197"/>
    <trip id="truck178" type="truck_truck" depart="87.75" from="70707218" to="170601197"/>
    <trip id="truck179" type="truck_truck" depart="88.25" from="1139168722" to="206489379"/>
    <trip id="truck180" type="truck_truck" depart="88.74" from="43948501" to="206489379"/>
    <trip id="truck182" type="truck_truck" depart="89.73" from="277654571" to="43947365"/>
    <trip id="truck183" type="truck_truck" depart="90.22" from="170605264" to="43947365"/>
    <trip id="truck184" type="truck_truck" depart="90.71" from="1118511056" to="43947368-AddedOnRampEdge"/>
    <trip id="truck187" type="truck_truck" depart="92.19" from="277654571" to="1120029191"/>
    <trip id="truck188" type="truck_truck" depart="92.68" from="43948501" to="206489379"/>
    <trip id="truck189" type="truck_truck" depart="93.18" from="206489380" to="43947368"/>
    <trip id="truck191" type="truck_truck" depart="94.16" from="206489379-AddedOnRampEdge" to="206489379"/>
    <trip id="truck194" type="truck_truck" depart="95.64" from="70707218" to="43947365"/>
    <trip id="truck195" type="truck_truck" depart="96.14" from="70707218" to="43947365"/>
    <trip id="truck198" type="truck_truck" depart="97.61" from="277654571" to="43947365"/>
    <trip id="truck199" type="truck_truck" depart="98.11" from="43948501" to="206489379"/>
    <trip id="truck201" type="truck_truck" depart="99.09" from="277654571" to="43947368"/>
    <trip id="truck202" type="truck_truck" depart="99.59" from="43948501" to="170601197"/>
    <trip id="truck204" type="truck_truck" depart="100.57" from="43948501" to="206489379"/>
    <trip id="truck206" type="truck_truck" depart="101.56" from="43948501" to="170601197"/>
    <trip id="truck210" type="truck_truck" depart="103.53" from="277654571" to="43947365"/>
    <trip id="truck211" type="truck_truck" depart="104.02" from="170605264" to="43947365"/>
    <trip id="truck213" type="truck_truck" depart="105.01" from="43948501" to="1118511056"/>
    <trip id="truck214" type="truck_truck" depart="105.50" from="43948501" to="43947368"/>
    <trip id="truck215" type="truck_truck" depart="106.00" from="1139168722" to="206489379"/>
    <trip id="truck218" type="truck_truck" depart="107.48" from="170605264" to="43947368"/>
    <trip id="truck219" type="truck_truck" depart="107.97" from="277654571" to="43947368"/>
    <trip id="truck220" type="truck_truck" depart="108.46" from="43948501" to="660731151"/>
    <trip id="truck222" type="truck_truck" depart="109.45" from="70707218" to="43947365"/>
    <trip id="truck224" type="truck_truck" depart="110.43" from="70707218" to="42064105-AddedOffRampEdge"/>
    <trip id="truck225" type="truck_truck" depart="110.93" from="70707218" to="43947365-AddedOnRampEdge"/>
    <trip id="truck227" type="truck_truck" depart="111.91" from="170605264" to="43947365"/>
    <trip id="truck229" type="truck_truck" depart="112.90" from="43948501" to="170601197"/>
    <trip id="truck232" type="truck_truck" depart="114.38" from="42064105" to="170601197"/>
    <trip id="truck233" type="truck_truck" depart="114.87" from="170605264" to="43947365"/>
    <trip id="truck234" type="truck_truck" depart="115.36" from="43948501" to="1120029190"/>
    <trip id="truck237" type="truck_truck" depart="116.84" from="277654571" to="43947368"/>
    <trip id="truck241" type="truck_truck" depart="118.81" from="277654571" to="43947368"/>
    <trip id="truck243" type="truck_truck" depart="119.80" from="277654571" to="43947365-AddedOnRampEdge"/>
    <trip id="truck245" type="truck_truck" depart="120.79" from="170605264" to="170601197"/>
    <trip id="truck247" type="truck_truck" depart="121.77" from="206489382-AddedOffRampEdge" to="43947365"/>
    <trip id="truck256" type="truck_truck" depart="126.21" from="43948501" to="206489379"/>
    <trip id="truck257" type="truck_truck" depart="126.70" from="43948501" to="43947368"/>
    <trip id="truck260" type="truck_truck" depart="128.18" from="70707218-AddedOffRampEdge" to="206489379"/>
    <trip id="truck261" type="truck_truck" depart="128.67" from="43948501" to="43947368"/>
    <trip id="truck262" type="truck_truck" depart="129.17" from="43948501" to="43947368"/>
    <trip id="truck263" type="truck_truck" depart="129.66" from="70707218" to="170601197"/>
    <trip id="truck265" type="truck_truck" depart="130.65" from="170605264" to="43947365"/>
    <trip id="truck267" type="truck_truck" depart="131.63" from="43948501" to="43947368"/>
    <trip id="truck268" type="truck_truck" depart="132.13" from="170605264" to="43947365"/>
    <trip id="truck270" type="truck_truck" depart="133.11" from="70707218" to="43947386#1"/>
    <trip id="truck273" type="truck_truck" depart="134.59" from="70707218" to="206489379"/>
    <trip id="truck276" type="truck_truck" depart="136.07" from="1122897134" to="43947368"/>
    <trip id="truck277" type="truck_truck" depart="136.56" from="70707218" to="43947365"/>
    <trip id="truck279" type="truck_truck" depart="137.55" from="43948501" to="206489379"/>
    <trip id="truck280" type="truck_truck" depart="138.04" from="277654571" to="206489379"/>
    <trip id="truck281" type="truck_truck" depart="138.53" from="277654571" to="206489379"/>
    <trip id="truck284" type="truck_truck" depart="140.01" from="43948501" to="43947368"/>
    <trip id="truck285" type="truck_truck" depart="140.51" from="43948501" to="206489379"/>
    <trip id="truck287" type="truck_truck" depart="141.49" from="170605264" to="43947368"/>
    <trip id="truck289" type="truck_truck" depart="142.48" from="277654571" to="43947365"/>
    <trip id="truck290" type="truck_truck" depart="142.97" from="170605264" to="43947368"/>
    <trip id="truck292" type="truck_truck" depart="143.96" from="70707218" to="170601197"/>
    <trip id="truck293" type="truck_truck" depart="144.45" from="277654571" to="43947365"/>
    <trip id="truck295" type="truck_truck" depart="145.44" from="70707218" to="170601197"/>
    <trip id="truck296" type="truck_truck" depart="145.93" from="170605264" to="43947368"/>
    <trip id="truck297" type="truck_truck" depart="146.42" from="277653336" to="43947368"/>
    <trip id="truck298" type="truck_truck" depart="146.92" from="43948501" to="170601197"/>
    <trip id="truck301" type="truck_truck" depart="148.39" from="277654571" to="43947368"/>
    <trip id="truck303" type="truck_truck" depart="149.38" from="277654571" to="43947368"/>
    <trip id="truck305" type="truck_truck" depart="150.37" from="43948501" to="206489379"/>
    <trip id="truck308" type="truck_truck" depart="151.85" from="43948501" to="206489379"/>
    <trip id="truck309" type="truck_truck" depart="152.34" from="43948501" to="170601197"/>
    <trip id="truck312" type="truck_truck" depart="153.82" from="41844004" to="43947368"/>
    <trip id="truck313" type="truck_truck" depart="154.31" from="170605264" to="170601197"/>
    <trip id="truck314" type="truck_truck" depart="154.80" from="277654571" to="43947365"/>
    <trip id="truck315" type="truck_truck" depart="155.30" from="70707218" to="406802122"/>
    <trip id="truck317" type="truck_truck" depart="156.28" from="170605264" to="170601197"/>
    <trip id="truck320" type="truck_truck" depart="157.76" from="70707218" to="42064105-AddedOffRampEdge"/>
    <trip id="truck321" type="truck_truck" depart="158.25" from="43948501" to="170601197"/>
    <trip id="truck323" type="truck_truck" depart="159.24" from="70707218" to="43947365"/>
    <trip id="truck324" type="truck_truck" depart="159.73" from="277654571" to="206489379"/>
    <trip id="truck325" type="truck_truck" depart="160.23" from="170605264" to="1120029186"/>
    <trip id="truck326" type="truck_truck" depart="160.72" from="70707218" to="206489379"/>
    <trip id="truck327" type="truck_truck" depart="161.21" from="70707218" to="206489379"/>
    <trip id="truck333" type="truck_truck" depart="164.17" from="43948501" to="170601197"/>
    <trip id="truck335" type="truck_truck" depart="165.16" from="277654571" to="43947368"/>
    <trip id="truck336" type="truck_truck" depart="165.65" from="70707218" to="206489379"/>
    <trip id="truck338" type="truck_truck" depart="166.64" from="43948501" to="43947369#1-AddedOnRampEdge"/>
    <trip id="truck339" type="truck_truck" depart="167.13" from="170605264" to="170601197"/>
    <trip id="truck340" type="truck_truck" depart="167.62" from="43948501" to="170601197"/>
    <trip id="truck342" type="truck_truck" depart="168.61" from="1118511056" to="206489379"/>
    <trip id="truck343" type="truck_truck" depart="169.10" from="43947369#1-AddedOnRampEdge" to="170601197"/>
    <trip id="truck344" type="truck_truck" depart="169.59" from="170605264" to="43947365"/>
    <trip id="truck345" type="truck_truck" depart="170.09" from="43948501" to="206489379"/>
    <trip id="truck346" type="truck_truck" depart="170.58" from="43948501" to="43947368-AddedOnRampEdge"/>
    <trip id="truck348" type="truck_truck" depart="171.57" from="43948501" to="43947369#1"/>
    <trip id="truck350" type="truck_truck" depart="172.55" from="43948501" to="43947368"/>
    <trip id="truck354" type="truck_truck" depart="174.52" from="170605264" to="170601197"/>
    <trip id="truck361" type="truck_truck" depart="177.97" from="70707218" to="43947365"/>
    <trip id="truck362" type="truck_truck" depart="178.47" from="70707218" to="70707218-AddedOffRampEdge"/>
    <trip id="truck363" type="truck_truck" depart="178.96" from="43948501" to="170601197"/>
    <trip id="truck365" type="truck_truck" depart="179.95" from="277654571" to="43947365"/>
    <trip id="truck366" type="truck_truck" depart="180.44" from="70707218" to="170601197"/>
    <trip id="truck369" type="truck_truck" depart="181.92" from="277654571" to="206489379"/>
    <trip id="truck370" type="truck_truck" depart="182.41" from="43948501" to="43947368"/>
    <trip id="truck371" type="truck_truck" depart="182.90" from="206489382" to="43947365"/>
    <trip id="truck372" type="truck_truck" depart="183.40" from="170605264" to="43947369#1-AddedOnRampEdge"/>
    <trip id="truck374" type="truck_truck" depart="184.38" from="277654571" to="206489379"/>
    <trip id="truck375" type="truck_truck" depart="184.88" from="206489382" to="43947390#1"/>
    <trip id="truck377" type="truck_truck" depart="185.86" from="70707218" to="43947365"/>
    <trip id="truck378" type="truck_truck" depart="186.36" from="42064105" to="206489379"/>
    <trip id="truck381" type="truck_truck" depart="187.83" from="43948501" to="170601197"/>
    <trip id="truck383" type="truck_truck" depart="188.82" from="277654571" to="43947365"/>
    <trip id="truck389" type="truck_truck" depart="191.78" from="277654571" to="170601193"/>
    <trip id="truck392" type="truck_truck" depart="193.26" from="170605264" to="43947368"/>
    <trip id="truck393" type="truck_truck" depart="193.75" from="70707218" to="170601197"/>
    <trip id="truck394" type="truck_truck" depart="194.24" from="42064105-AddedOffRampEdge" to="206489379"/>
    <trip id="truck397" type="truck_truck" depart="195.72" from="170605264" to="43947368"/>
    <trip id="truck399" type="truck_truck" depart="196.71" from="277654571" to="43947368"/>
    <trip id="truck400" type="truck_truck" depart="197.20" from="170605264" to="170605269"/>
    <trip id="truck405" type="truck_truck" depart="199.67" from="277654571" to="206489379"/>
    <trip id="truck406" type="truck_truck" depart="200.16" from="170605264" to="43947365"/>
    <trip id="truck411" type="truck_truck" depart="202.62" from="43948501" to="43947368"/>
    <trip id="truck415" type="truck_truck" depart="204.60" from="70707218" to="206489379"/>
    <trip id="truck417" type="truck_truck" depart="205.58" from="43948501" to="206489379"/>
    <trip id="truck418" type="truck_truck" depart="206.08" from="43948501" to="170601197"/>
    <trip id="truck420" type="truck_truck" depart="207.06" from="206489382-AddedOffRampEdge" to="43947365"/>
    <trip id="truck421" type="truck_truck" depart="207.55" from="43948501" to="43947368"/>
    <trip id="truck423" type="truck_truck" depart="208.54" from="277654571" to="206489379"/>
    <trip id="truck424" type="truck_truck" depart="209.03" from="43948501" to="43947368"/>
    <trip id="truck425" type="truck_truck" depart="209.53" from="70707218" to="1120029183"/>
    <trip id="truck427" type="truck_truck" depart="210.51" from="70707218" to="70707218-AddedOffRampEdge"/>
    <trip id="truck428" type="truck_truck" depart="211.01" from="43948501" to="206489379"/>
    <trip id="truck430" type="truck_truck" depart="211.99" from="70707218" to="206489379"/>
    <trip id="truck431" type="truck_truck" depart="212.49" from="43948501" to="43947368"/>
    <trip id="truck437" type="truck_truck" depart="215.44" from="70707218" to="43947365"/>
    <trip id="truck438" type="truck_truck" depart="215.94" from="170605264" to="43947368"/>
    <trip id="truck440" type="truck_truck" depart="216.92" from="170605264" to="170601197"/>
    <trip id="truck441" type="truck_truck" depart="217.42" from="1118511056-AddedOffRampEdge" to="43947368"/>
    <trip id="truck442" type="truck_truck" depart="217.91" from="70707218" to="43947365"/>
    <trip id="truck445" type="truck_truck" depart="219.39" from="43948501" to="206489379"/>
    <trip id="truck446" type="truck_truck" depart="219.88" from="170605264" to="43947368"/>
    <trip id="truck449" type="truck_truck" depart="221.36" from="43947365-AddedOnRampEdge" to="43947365"/>
    <trip id="truck450" type="truck_truck" depart="221.85" from="70707218-AddedOffRampEdge" to="170601197"/>
    <trip id="truck451" type="truck_truck" depart="222.35" from="70707218" to="43947365"/>
    <trip id="truck452" type="truck_truck" depart="222.84" from="170605264" to="43947365"/>
    <trip id="truck454" type="truck_truck" depart="223.82" from="1120029186" to="43947365"/>
    <trip id="truck455" type="truck_truck" depart="224.32" from="277654571" to="43947368"/>
    <trip id="truck456" type="truck_truck" depart="224.81" from="170605264" to="43947368"/>
    <trip id="truck460" type="truck_truck" depart="226.78" from="43948501" to="43947368"/>
    <trip id="truck461" type="truck_truck" depart="227.28" from="43948501" to="43947368"/>
    <trip id="truck462" type="truck_truck" depart="227.77" from="43948501" to="206489379"/>
    <trip id="truck463" type="truck_truck" depart="228.26" from="277654571" to="43947365"/>
    <trip id="truck464" type="truck_truck" depart="228.75" from="43948501" to="1122897133"/>
    <trip id="truck465" type="truck_truck" depart="229.25" from="170605264" to="43947365-AddedOnRampEdge"/>
    <trip id="truck466" type="truck_truck" depart="229.74" from="170605264" to="170601197"/>
    <trip id="truck468" type="truck_truck" depart="230.73" from="41844004" to="43947368"/>
    <trip id="truck469" type="truck_truck" depart="231.22" from="70707218" to="170601197"/>
    <trip id="truck470" type="truck_truck" depart="231.71" from="70707218" to="206489379-AddedOnRampEdge"/>
    <trip id="truck473" type="truck_truck" depart="233.19" from="70707218" to="170601197"/>
    <trip id="truck475" type="truck_truck" depart="234.18" from="43948501" to="43948501-AddedOffRampEdge"/>
    <trip id="truck477" type="truck_truck" depart="235.16" from="277654571" to="43947368"/>
    <trip id="truck479" type="truck_truck" depart="236.15" from="277654571" to="43947365"/>
    <trip id="truck481" type="truck_truck" depart="237.14" from="70707218" to="43947369#1-AddedOnRampEdge"/>
    <trip id="truck488" type="truck_truck" depart="240.59" from="170605264" to="43947369#1-AddedOnRampEdge"/>
    <trip id="truck490" type="truck_truck" depart="241.57" from="1122897134" to="43947368"/>
    <trip id="truck493" type="truck_truck" depart="243.05" from="70707218" to="206489379"/>
    <trip id="truck494" type="truck_truck" depart="243.54" from="43948501" to="170601197"/>
    <trip id="truck495" type="truck_truck" depart="244.04" from="277654571" to="1122897134"/>
    <trip id="truck496" type="truck_truck" depart="244.53" from="277654571" to="206489379"/>
    <trip id="truck498" type="truck_truck" depart="245.52" from="277654571" to="206489379"/>
    <trip id="truck502" type="truck_truck" depart="247.49" from="277654571" to="206489379"/>
    <trip id="truck503" type="truck_truck" depart="247.98" from="170605264" to="170601197"/>
    <trip id="truck504" type="truck_truck" depart="248.47" from="70707218" to="206489379"/>
    <trip id="truck507" type="truck_truck" depart="249.95" from="43948501" to="170601197"/>
    <trip id="truck508" type="truck_truck" depart="250.45" from="170605264" to="42064232"/>
    <trip id="truck509" type="truck_truck" depart="250.94" from="1120029190" to="43947368"/>
    <trip id="truck510" type="truck_truck" depart="251.43" from="170605264" to="170601197"/>
    <trip id="truck511" type="truck_truck" depart="251.93" from="70707218" to="206489379"/>
    <trip id="truck512" type="truck_truck" depart="252.42" from="170605264" to="43947368"/>
    <trip id="truck513" type="truck_truck" depart="252.91" from="1118511056" to="43947368"/>
    <trip id="truck514" type="truck_truck" depart="253.40" from="170605264" to="170601197"/>
    <trip id="truck515" type="truck_truck" depart="253.90" from="170605264" to="170601197"/>
    <trip id="truck517" type="truck_truck" depart="254.88" from="1118511056-AddedOffRampEdge" to="43947368"/>
    <trip id="truck521" type="truck_truck" depart="256.86" from="43948501" to="206489379"/>
    <trip id="truck524" type="truck_truck" depart="258.33" from="70707218" to="1120029183"/>
    <trip id="truck525" type="truck_truck" depart="258.83" from="43948501" to="43947368"/>
    <trip id="truck526" type="truck_truck" depart="259.32" from="277654571" to="206489379"/>
    <trip id="truck528" type="truck_truck" depart="260.31" from="277654571" to="206489379"/>
    <trip id="truck537" type="truck_truck" depart="264.74" from="43948501" to="43947368"/>
    <trip id="truck538" type="truck_truck" depart="265.24" from="43948501" to="43947368"/>
    <trip id="truck539" type="truck_truck" depart="265.73" from="43948501" to="170601197"/>
    <trip id="truck543" type="truck_truck" depart="267.70" from="277654571" to="43947365"/>
    <trip id="truck551" type="truck_truck" depart="271.65" from="277654571" to="43947365"/>
    <trip id="truck552" type="truck_truck" depart="272.14" from="43948501" to="43947368"/>
    <trip id="truck556" type="truck_truck" depart="274.11" from="43948501" to="170601197"/>
    <trip id="truck558" type="truck_truck" depart="275.10" from="277654571" to="43947368"/>
    <trip id="truck559" type="truck_truck" depart="275.59" from="43947368-AddedOnRampEdge" to="43947368"/>
    <trip id="truck561" type="truck_truck" depart="276.58" from="70707218" to="43947365"/>
    <trip id="truck564" type="truck_truck" depart="278.05" from="170605264" to="170601197"/>
    <trip id="truck565" type="truck_truck" depart="278.55" from="43948501" to="206489379"/>
    <trip id="truck567" type="truck_truck" depart="279.53" from="70707218" to="43947365"/>
    <trip id="truck570" type="truck_truck" depart="281.01" from="43948501" to="170601197"/>
    <trip id="truck571" type="truck_truck" depart="281.51" from="277654571" to="206489379"/>
    <trip id="truck572" type="truck_truck" depart="282.00" from="277654571" to="43947365"/>
    <trip id="truck575" type="truck_truck" depart="283.48" from="170605264" to="43947365"/>
    <trip id="truck576" type="truck_truck" depart="283.97" from="43948501" to="170601197"/>
    <trip id="truck577" type="truck_truck" depart="284.46" from="43948501" to="206489379-AddedOnRampEdge"/>
    <trip id="truck581" type="truck_truck" depart="286.44" from="43948501" to="206489379-AddedOnRampEdge"/>
    <trip id="truck583" type="truck_truck" depart="287.42" from="277654571" to="43947365"/>