<?xml version="1.0" encoding="UTF-8"?>

<!-- generated on 2024-12-04 18:35:51.364204 by main.py UNKNOWN
<configuration>
    <net-file value="/root/myvenv/nextpj/src/backend/data/scenario_1733337335/osm.net.xml.gz"/>
    <output-trip-file value="/root/myvenv/nextpj/src/backend/data/scenario_1733337335/osm.truck.trips.xml"/>
    <route-file value="/root/myvenv/nextpj/src/backend/data/scenario_1733337335/osm.truck.rou.xml"/>
    <prefix value="truck"/>
    <vehicle-class value="truck"/>
    <fringe-factor value="20.0"/>
    <validate value="True"/>
    <insertion-density value="80.0"/>
</configuration>
-->

<!-- generated on 2024-12-04 18:35:51 by Eclipse SUMO duarouter Version 1.21.0
<duarouterConfiguration xmlns:xsi="http://www.w3.org/2001/XMLSchema-instance" xsi:noNamespaceSchemaLocation="http://sumo.dlr.de/xsd/duarouterConfiguration.xsd">

    <input>
        <net-file value="/root/myvenv/nextpj/src/backend/data/scenario_1733337335/osm.net.xml.gz"/>
        <route-files value="/root/myvenv/nextpj/src/backend/data/scenario_1733337335/osm.truck.trips.xml"/>
    </input>

    <output>
        <output-file value="/root/myvenv/nextpj/src/backend/data/scenario_1733337335/osm.truck.rou.xml"/>
        <alternatives-output value="NUL"/>
    </output>

    <time>
        <begin value="0.0"/>
        <end value="3600.0"/>
    </time>

    <report>
        <no-warnings value="true"/>
        <ignore-errors value="true"/>
        <no-step-log value="true"/>
    </report>

</duarouterConfiguration>
-->

<routes xmlns:xsi="http://www.w3.org/2001/XMLSchema-instance" xsi:noNamespaceSchemaLocation="http://sumo.dlr.de/xsd/routes_file.xsd">
    <vType id="truck_truck" vClass="truck"/>
    <vehicle id="truck1" type="truck_truck" depart="0.49">
        <route edges="170605264 170605269 1120029182 1120029183 43947369#1-AddedOnRampEdge 43947369#1 170601197"/>
    </vehicle>
    <vehicle id="truck5" type="truck_truck" depart="2.47">
        <route edges="170605264 170605269 206489382 206489382-AddedOffRampEdge"/>
    </vehicle>
    <vehicle id="truck6" type="truck_truck" depart="2.96">
        <route edges="1120029182 1120029183 43947369#1-AddedOnRampEdge 43947369#1 170601197"/>
    </vehicle>
    <vehicle id="truck8" type="truck_truck" depart="3.94">
        <route edges="170605264 170605269 206489382 206489382-AddedOffRampEdge 42064232 1120029186 43947365-AddedOnRampEdge 43947365"/>
    </vehicle>
    <vehicle id="truck12" type="truck_truck" depart="5.92">
        <route edges="70707218 70707218-AddedOffRampEdge 42064105 42064105-AddedOffRampEdge 43947386#1 206489379-AddedOnRampEdge 206489379"/>
    </vehicle>
    <vehicle id="truck14" type="truck_truck" depart="6.90">
        <route edges="70707218 70707218-AddedOffRampEdge 1120029181 1120029186 43947365-AddedOnRampEdge 43947365"/>
    </vehicle>
    <vehicle id="truck18" type="truck_truck" depart="8.87">
        <route edges="70707218 70707218-AddedOffRampEdge 1120029181 1120029186 43947365-AddedOnRampEdge 43947365"/>
    </vehicle>
    <vehicle id="truck19" type="truck_truck" depart="9.37">
        <route edges="70707218 70707218-AddedOffRampEdge 1120029181 1120029186 43947365-AddedOnRampEdge 43947365"/>
    </vehicle>
    <vehicle id="truck21" type="truck_truck" depart="10.35">
        <route edges="170605264 170605269 1120029182 1120029183 43947369#1-AddedOnRampEdge 43947369#1 170601197"/>
    </vehicle>
    <vehicle id="truck24" type="truck_truck" depart="11.83">
        <route edges="43948501 43948501-AddedOffRampEdge 1118511056 1118511056-AddedOffRampEdge 1120029196 1139168722 206489379-AddedOnRampEdge 206489379"/>
    </vehicle>
    <vehicle id="truck26" type="truck_truck" depart="12.82">
        <route edges="170605264 170605269 1120029182 1120029183 43947369#1-AddedOnRampEdge 43947369#1"/>
    </vehicle>
    <vehicle id="truck28" type="truck_truck" depart="13.80">
        <route edges="170605264 170605269 206489382 206489382-AddedOffRampEdge 42064232 1120029186 43947365-AddedOnRampEdge 43947365"/>
    </vehicle>
    <vehicle id="truck30" type="truck_truck" depart="14.79">
        <route edges="70707218 70707218-AddedOffRampEdge 1120029181 1120029186 43947365-AddedOnRampEdge 43947365"/>
    </vehicle>
    <vehicle id="truck31" type="truck_truck" depart="15.28">
        <route edges="42064232 1120029186 43947365-AddedOnRampEdge 43947365"/>
    </vehicle>
    <vehicle id="truck33" type="truck_truck" depart="16.27">
        <route edges="170605264 170605269 1120029182"/>
    </vehicle>
    <vehicle id="truck35" type="truck_truck" depart="17.26">
        <route edges="170605264 170605269 1120029182 1120029183 43947369#1-AddedOnRampEdge"/>
    </vehicle>
    <vehicle id="truck36" type="truck_truck" depart="17.75">
        <route edges="70707218 70707218-AddedOffRampEdge 42064105 42064105-AddedOffRampEdge 43947386#1 206489379-AddedOnRampEdge 206489379"/>
    </vehicle>
    <vehicle id="truck37" type="truck_truck" depart="18.24">
        <route edges="43948501 43948501-AddedOffRampEdge 1118511056 1118511056-AddedOffRampEdge 1120029196 1139168722 206489379-AddedOnRampEdge 206489379"/>
    </vehicle>
    <vehicle id="truck38" type="truck_truck" depart="18.73">
        <route edges="70707218 70707218-AddedOffRampEdge 42064105 42064105-AddedOffRampEdge 43947386#1 206489379-AddedOnRampEdge 206489379"/>
    </vehicle>
    <vehicle id="truck39" type="truck_truck" depart="19.23">
        <route edges="170605264 170605269 1120029182 1120029183 43947369#1-AddedOnRampEdge 43947369#1 170601197"/>
    </vehicle>
    <vehicle id="truck46" type="truck_truck" depart="22.68">
        <route edges="43948501 43948501-AddedOffRampEdge 1118511056 1118511056-AddedOffRampEdge 1120029196 1139168722 206489379-AddedOnRampEdge 206489379"/>
    </vehicle>
    <vehicle id="truck48" type="truck_truck" depart="23.66">
        <route edges="70707218-AddedOffRampEdge 42064105 42064105-AddedOffRampEdge 406802122"/>
    </vehicle>
    <vehicle id="truck52" type="truck_truck" depart="25.64">
        <route edges="170605264 170605269 206489382 206489382-AddedOffRampEdge 42064232 1120029186 43947365-AddedOnRampEdge 43947365"/>
    </vehicle>
    <vehicle id="truck53" type="truck_truck" depart="26.13">
        <route edges="1139168722 206489379-AddedOnRampEdge 206489379"/>
    </vehicle>
    <vehicle id="truck55" type="truck_truck" depart="27.12">
        <route edges="70707218 70707218-AddedOffRampEdge 42064105 42064105-AddedOffRampEdge 406802122 1120029183 43947369#1-AddedOnRampEdge 43947369#1 170601197"/>
    </vehicle>
    <vehicle id="truck58" type="truck_truck" depart="28.59">
        <route edges="170605269 206489382 206489382-AddedOffRampEdge 42064232 1120029186 43947365-AddedOnRampEdge 43947365"/>
    </vehicle>
    <vehicle id="truck62" type="truck_truck" depart="30.57">
        <route edges="1118511056 1118511056-AddedOffRampEdge 1120029196 1139168722 206489379-AddedOnRampEdge 206489379"/>
    </vehicle>
    <vehicle id="truck66" type="truck_truck" depart="32.54">
        <route edges="70707218 70707218-AddedOffRampEdge 42064105 42064105-AddedOffRampEdge 406802122 1120029183 43947369#1-AddedOnRampEdge"/>
    </vehicle>
    <vehicle id="truck67" type="truck_truck" depart="33.03">
        <route edges="1120029196 1139168722 206489379-AddedOnRampEdge"/>
    </vehicle>
    <vehicle id="truck68" type="truck_truck" depart="33.52">
        <route edges="1120029190 1120029189 43947368-AddedOnRampEdge 43947368"/>
    </vehicle>
    <vehicle id="truck69" type="truck_truck" depart="34.02">
        <route edges="43948501 43948501-AddedOffRampEdge 660731151 43947369#1-AddedOnRampEdge 43947369#1 170601197"/>
    </vehicle>
    <vehicle id="truck71" type="truck_truck" depart="35.00">
        <route edges="170605264 170605269 206489382 206489382-AddedOffRampEdge 43947390#1 277653336 206489380 43947382 43947368-AddedOnRampEdge 43947368"/>
    </vehicle>
    <vehicle id="truck75" type="truck_truck" depart="36.98">
        <route edges="70707218-AddedOffRampEdge 1120029181 1120029186 43947365-AddedOnRampEdge 43947365"/>
    </vehicle>
    <vehicle id="truck78" type="truck_truck" depart="38.45">
        <route edges="206489382-AddedOffRampEdge 42064232 1120029186 43947365-AddedOnRampEdge 43947365"/>
    </vehicle>
    <vehicle id="truck79" type="truck_truck" depart="38.95">
        <route edges="170605264 170605269 1120029182 1120029183 43947369#1-AddedOnRampEdge 43947369#1 170601197"/>
    </vehicle>
    <vehicle id="truck81" type="truck_truck" depart="39.93">
        <route edges="170605264 170605269 206489382 206489382-AddedOffRampEdge 43947390#1 277653336 206489380 43947382 43947368-AddedOnRampEdge 43947368"/>
    </vehicle>
    <vehicle id="truck83" type="truck_truck" depart="40.92">
        <route edges="170605264 170605269 206489382 206489382-AddedOffRampEdge 42064232 1120029186 43947365-AddedOnRampEdge 43947365"/>
    </vehicle>
    <vehicle id="truck84" type="truck_truck" depart="41.41">
        <route edges="170605264 170605269 1120029182 1120029183 43947369#1-AddedOnRampEdge 43947369#1 170601197"/>
    </vehicle>
    <vehicle id="truck85" type="truck_truck" depart="41.91">
        <route edges="70707218 70707218-AddedOffRampEdge 1120029181 1120029186 43947365-AddedOnRampEdge 43947365"/>
    </vehicle>
    <vehicle id="truck86" type="truck_truck" depart="42.40">
        <route edges="277654571 1122897134 41844004 1120029190 1120029189 43947368-AddedOnRampEdge 43947368"/>
    </vehicle>
    <vehicle id="truck87" type="truck_truck" depart="42.89">
        <route edges="43948501-AddedOffRampEdge 660731151 43947369#1-AddedOnRampEdge 43947369#1 170601197"/>
    </vehicle>
    <vehicle id="truck88" type="truck_truck" depart="43.38">
        <route edges="1122897134 1120029191 1139168722 206489379-AddedOnRampEdge 206489379"/>
    </vehicle>
    <vehicle id="truck89" type="truck_truck" depart="43.88">
        <route edges="277654571 1122897134 1120029191 1139168722 206489379-AddedOnRampEdge 206489379"/>
    </vehicle>
    <vehicle id="truck92" type="truck_truck" depart="45.36">
        <route edges="277654571 1122897134 1120029191 1139168722 206489379-AddedOnRampEdge 206489379"/>
    </vehicle>
    <vehicle id="truck93" type="truck_truck" depart="45.85">
        <route edges="70707218 70707218-AddedOffRampEdge 42064105 42064105-AddedOffRampEdge 406802122 1120029183 43947369#1-AddedOnRampEdge 43947369#1 170601197"/>
    </vehicle>
    <vehicle id="truck96" type="truck_truck" depart="47.33">
        <route edges="170605264 170605269 206489382 206489382-AddedOffRampEdge 43947390#1 277653336 206489380 43947382 43947368-AddedOnRampEdge"/>
    </vehicle>
    <vehicle id="truck97" type="truck_truck" depart="47.82">
        <route edges="277654571 1122897134 41844004 1120029190 1120029189 43947368-AddedOnRampEdge 43947368"/>
    </vehicle>
    <vehicle id="truck101" type="truck_truck" depart="49.79">
        <route edges="70707218 70707218-AddedOffRampEdge 42064105 42064105-AddedOffRampEdge 406802122 1120029183 43947369#1-AddedOnRampEdge 43947369#1 170601197"/>
    </vehicle>
    <vehicle id="truck103" type="truck_truck" depart="50.78">
        <route edges="277654571 1122897134 41844004 1120029190 1120029189"/>
    </vehicle>
    <vehicle id="truck105" type="truck_truck" depart="51.77">
        <route edges="170605264 170605269 206489382 206489382-AddedOffRampEdge 43947390#1 277653336 206489380 43947382 43947368-AddedOnRampEdge 43947368"/>
    </vehicle>
    <vehicle id="truck106" type="truck_truck" depart="52.26">
        <route edges="277654571 1122897134 1120029191 1139168722 206489379-AddedOnRampEdge 206489379"/>
    </vehicle>
    <vehicle id="truck107" type="truck_truck" depart="52.75">
        <route edges="70707218 70707218-AddedOffRampEdge"/>
    </vehicle>
    <vehicle id="truck109" type="truck_truck" depart="53.74">
        <route edges="170605264 170605269"/>
    </vehicle>
    <vehicle id="truck110" type="truck_truck" depart="54.23">
        <route edges="70707218 70707218-AddedOffRampEdge 1120029181 1120029186 43947365-AddedOnRampEdge 43947365"/>
    </vehicle>
    <vehicle id="truck113" type="truck_truck" depart="55.71">
        <route edges="277654571 1122897134 41844004 1120029190 1120029189 43947368-AddedOnRampEdge 43947368"/>
    </vehicle>
    <vehicle id="truck118" type="truck_truck" depart="58.17">
        <route edges="70707218 70707218-AddedOffRampEdge 42064105 42064105-AddedOffRampEdge 406802122 1120029183 43947369#1-AddedOnRampEdge 43947369#1 170601197"/>
    </vehicle>
    <vehicle id="truck120" type="truck_truck" depart="59.16">
        <route edges="277654571 170601193 43947365-AddedOnRampEdge 43947365"/>
    </vehicle>
    <vehicle id="truck121" type="truck_truck" depart="59.65">
        <route edges="406802122 1120029183 43947369#1-AddedOnRampEdge 43947369#1"/>
    </vehicle>
    <vehicle id="truck122" type="truck_truck" depart="60.15">
        <route edges="170605264 170605269 206489382 206489382-AddedOffRampEdge 42064232 1120029186 43947365-AddedOnRampEdge 43947365"/>
    </vehicle>
    <vehicle id="truck125" type="truck_truck" depart="61.63">
        <route edges="206489380 43947382 43947368-AddedOnRampEdge 43947368"/>
    </vehicle>
    <vehicle id="truck126" type="truck_truck" depart="62.12">
        <route edges="1120029191 1139168722 206489379-AddedOnRampEdge 206489379"/>
    </vehicle>
    <vehicle id="truck127" type="truck_truck" depart="62.61">
        <route edges="70707218-AddedOffRampEdge"/>
    </vehicle>
    <vehicle id="truck129" type="truck_truck" depart="63.60">
        <route edges="170605264 170605269 1120029182 1120029183 43947369#1-AddedOnRampEdge 43947369#1"/>
    </vehicle>
    <vehicle id="truck132" type="truck_truck" depart="65.08">
        <route edges="70707218 70707218-AddedOffRampEdge 1120029181 1120029186 43947365-AddedOnRampEdge 43947365"/>
    </vehicle>
    <vehicle id="truck134" type="truck_truck" depart="66.06">
        <route edges="43948501 43948501-AddedOffRampEdge 1118511056"/>
    </vehicle>
    <vehicle id="truck136" type="truck_truck" depart="67.05">
        <route edges="43948501 43948501-AddedOffRampEdge 660731151 43947369#1-AddedOnRampEdge 43947369#1"/>
    </vehicle>
    <vehicle id="truck139" type="truck_truck" depart="68.53">
        <route edges="170605264 170605269 206489382 206489382-AddedOffRampEdge 42064232 1120029186 43947365-AddedOnRampEdge 43947365"/>
    </vehicle>
    <vehicle id="truck140" type="truck_truck" depart="69.02">
        <route edges="43948501 43948501-AddedOffRampEdge 660731151 43947369#1-AddedOnRampEdge 43947369#1 170601197"/>
    </vehicle>
    <vehicle id="truck141" type="truck_truck" depart="69.51">
        <route edges="43948501 43948501-AddedOffRampEdge 660731151 43947369#1-AddedOnRampEdge 43947369#1 170601197"/>
    </vehicle>
    <vehicle id="truck142" type="truck_truck" depart="70.01">
        <route edges="277654571 1122897134 41844004 1120029190 1120029189 43947368-AddedOnRampEdge 43947368"/>
    </vehicle>
    <vehicle id="truck145" type="truck_truck" depart="71.49">
        <route edges="1118511056 1118511056-AddedOffRampEdge 1122897133 1120029190 1120029189 43947368-AddedOnRampEdge 43947368"/>
    </vehicle>
    <vehicle id="truck146" type="truck_truck" depart="71.98">
        <route edges="43948501 43948501-AddedOffRampEdge 660731151 43947369#1-AddedOnRampEdge 43947369#1 170601197"/>
    </vehicle>
    <vehicle id="truck150" type="truck_truck" depart="73.95">
        <route edges="70707218 70707218-AddedOffRampEdge 42064105"/>
    </vehicle>
    <vehicle id="truck151" type="truck_truck" depart="74.44">
        <route edges="70707218 70707218-AddedOffRampEdge 1120029181 1120029186 43947365-AddedOnRampEdge 43947365"/>
    </vehicle>
    <vehicle id="truck152" type="truck_truck" depart="74.94">
        <route edges="170605264 170605269 1120029182 1120029183 43947369#1-AddedOnRampEdge 43947369#1 170601197"/>
    </vehicle>
    <vehicle id="truck154" type="truck_truck" depart="75.92">
        <route edges="43948501 43948501-AddedOffRampEdge 1118511056 1118511056-AddedOffRampEdge 1122897133 1120029190 1120029189 43947368-AddedOnRampEdge 43947368"/>
    </vehicle>
    <vehicle id="truck155" type="truck_truck" depart="76.42">
        <route edges="70707218 70707218-AddedOffRampEdge 42064105 42064105-AddedOffRampEdge 406802122 1120029183 43947369#1-AddedOnRampEdge 43947369#1 170601197"/>
    </vehicle>
    <vehicle id="truck157" type="truck_truck" depart="77.40">
        <route edges="43948501 43948501-AddedOffRampEdge 1118511056 1118511056-AddedOffRampEdge 1122897133 1120029190 1120029189 43947368-AddedOnRampEdge 43947368"/>
    </vehicle>
    <vehicle id="truck158" type="truck_truck" depart="77.89">
        <route edges="277654571 170601193 43947365-AddedOnRampEdge 43947365"/>
    </vehicle>
    <vehicle id="truck159" type="truck_truck" depart="78.39">
        <route edges="170605264 170605269 206489382 206489382-AddedOffRampEdge 43947390#1 277653336 206489380 43947382 43947368-AddedOnRampEdge"/>
    </vehicle>
    <vehicle id="truck162" type="truck_truck" depart="79.87">
        <route edges="1120029181 1120029186 43947365-AddedOnRampEdge 43947365"/>
    </vehicle>
    <vehicle id="truck164" type="truck_truck" depart="80.85">
        <route edges="43948501-AddedOffRampEdge 1118511056 1118511056-AddedOffRampEdge 1122897133 1120029190 1120029189 43947368-AddedOnRampEdge 43947368"/>
    </vehicle>
    <vehicle id="truck165" type="truck_truck" depart="81.35">
        <route edges="660731151 43947369#1-AddedOnRampEdge 43947369#1 170601197"/>
    </vehicle>
    <vehicle id="truck166" type="truck_truck" depart="81.84">
        <route edges="43948501 43948501-AddedOffRampEdge 1118511056 1118511056-AddedOffRampEdge 1120029196 1139168722"/>
    </vehicle>
    <vehicle id="truck168" type="truck_truck" depart="82.82">
        <route edges="170605264 170605269 206489382 206489382-AddedOffRampEdge 43947390#1 277653336 206489380 43947382 43947368-AddedOnRampEdge 43947368"/>
    </vehicle>
    <vehicle id="truck169" type="truck_truck" depart="83.32">
        <route edges="277654571 1122897134 1120029191 1139168722 206489379-AddedOnRampEdge 206489379"/>
    </vehicle>
    <vehicle id="truck170" type="truck_truck" depart="83.81">
        <route edges="43948501 43948501-AddedOffRampEdge 660731151 43947369#1-AddedOnRampEdge 43947369#1 170601197"/>
    </vehicle>
    <vehicle id="truck172" type="truck_truck" depart="84.80">
        <route edges="206489382 206489382-AddedOffRampEdge 43947390#1 277653336 206489380 43947382 43947368-AddedOnRampEdge 43947368"/>
    </vehicle>
    <vehicle id="truck173" type="truck_truck" depart="85.29">
        <route edges="70707218 70707218-AddedOffRampEdge 42064105 42064105-AddedOffRampEdge 406802122 1120029183 43947369#1-AddedOnRampEdge 43947369#1 170601197"/>
    </vehicle>
    <vehicle id="truck174" type="truck_truck" depart="85.78">
        <route edges="43948501 43948501-AddedOffRampEdge 1118511056 1118511056-AddedOffRampEdge 1120029196 1139168722 206489379-AddedOnRampEdge 206489379"/>
    </vehicle>
    <vehicle id="truck177" type="truck_truck" depart="87.26">
        <route edges="70707218 70707218-AddedOffRampEdge 42064105 42064105-AddedOffRampEdge 406802122 1120029183 43947369#1-AddedOnRampEdge 43947369#1 170601197"/>
    </vehicle>
    <vehicle id="truck178" type="truck_truck" depart="87.75">
        <route edges="70707218 70707218-AddedOffRampEdge 42064105 42064105-AddedOffRampEdge 406802122 1120029183 43947369#1-AddedOnRampEdge 43947369#1 170601197"/>
    </vehicle>
    <vehicle id="truck179" type="truck_truck" depart="88.25">
        <route edges="1139168722 206489379-AddedOnRampEdge 206489379"/>
    </vehicle>
    <vehicle id="truck180" type="truck_truck" depart="88.74">
        <route edges="43948501 43948501-AddedOffRampEdge 1118511056 1118511056-AddedOffRampEdge 1120029196 1139168722 206489379-AddedOnRampEdge 206489379"/>
    </vehicle>
    <vehicle id="truck182" type="truck_truck" depart="89.73">
        <route edges="277654571 170601193 43947365-AddedOnRampEdge 43947365"/>
    </vehicle>
    <vehicle id="truck183" type="truck_truck" depart="90.22">
        <route edges="170605264 170605269 206489382 206489382-AddedOffRampEdge 42064232 1120029186 43947365-AddedOnRampEdge 43947365"/>
    </vehicle>
    <vehicle id="truck184" type="truck_truck" depart="90.71">
        <route edges="1118511056 1118511056-AddedOffRampEdge 1122897133 1120029190 1120029189 43947368-AddedOnRampEdge"/>
    </vehicle>
    <vehicle id="truck187" type="truck_truck" depart="92.19">
        <route edges="277654571 1122897134 1120029191"/>
    </vehicle>
    <vehicle id="truck188" type="truck_truck" depart="92.68">
        <route edges="43948501 43948501-AddedOffRampEdge 1118511056 1118511056-AddedOffRampEdge 1120029196 1139168722 206489379-AddedOnRampEdge 206489379"/>
    </vehicle>
    <vehicle id="truck189" type="truck_truck" depart="93.18">
        <route edges="206489380 43947382 43947368-AddedOnRampEdge 43947368"/>
    </vehicle>
    <vehicle id="truck191" type="truck_truck" depart="94.16">
        <route edges="206489379-AddedOnRampEdge 206489379"/>
    </vehicle>
    <vehicle id="truck194" type="truck_truck" depart="95.64">
        <route edges="70707218 70707218-AddedOffRampEdge 1120029181 1120029186 43947365-AddedOnRampEdge 43947365"/>
    </vehicle>
    <vehicle id="truck195" type="truck_truck" depart="96.14">
        <route edges="70707218 70707218-AddedOffRampEdge 1120029181 1120029186 43947365-AddedOnRampEdge 43947365"/>
    </vehicle>
    <vehicle id="truck198" type="truck_truck" depart="97.61">
        <route edges="277654571 170601193 43947365-AddedOnRampEdge 43947365"/>
    </vehicle>
    <vehicle id="truck199" type="truck_truck" depart="98.11">
        <route edges="43948501 43948501-AddedOffRampEdge 1118511056 1118511056-AddedOffRampEdge 1120029196 1139168722 206489379-AddedOnRampEdge 206489379"/>
    </vehicle>
    <vehicle id="truck201" type="truck_truck" depart="99.09">
        <route edges="277654571 1122897134 41844004 1120029190 1120029189 43947368-AddedOnRampEdge 43947368"/>
    </vehicle>
    <vehicle id="truck202" type="truck_truck" depart="99.59">
        <route edges="43948501 43948501-AddedOffRampEdge 660731151 43947369#1-AddedOnRampEdge 43947369#1 170601197"/>
    </vehicle>
    <vehicle id="truck204" type="truck_truck" depart="100.57">
        <route edges="43948501 43948501-AddedOffRampEdge 1118511056 1118511056-AddedOffRampEdge 1120029196 1139168722 206489379-AddedOnRampEdge 206489379"/>
    </vehicle>
    <vehicle id="truck206" type="truck_truck" depart="101.56">
        <route edges="43948501 43948501-AddedOffRampEdge 660731151 43947369#1-AddedOnRampEdge 43947369#1 170601197"/>
    </vehicle>
    <vehicle id="truck210" type="truck_truck" depart="103.53">
        <route edges="277654571 170601193 43947365-AddedOnRampEdge 43947365"/>
    </vehicle>
    <vehicle id="truck211" type="truck_truck" depart="104.02">
        <route edges="170605264 170605269 206489382 206489382-AddedOffRampEdge 42064232 1120029186 43947365-AddedOnRampEdge 43947365"/>
    </vehicle>
    <vehicle id="truck213" type="truck_truck" depart="105.01">
        <route edges="43948501 43948501-AddedOffRampEdge 1118511056"/>
    </vehicle>
    <vehicle id="truck214" type="truck_truck" depart="105.50">
        <route edges="43948501 43948501-AddedOffRampEdge 1118511056 1118511056-AddedOffRampEdge 1122897133 1120029190 1120029189 43947368-AddedOnRampEdge 43947368"/>
    </vehicle>
    <vehicle id="truck215" type="truck_truck" depart="106.00">
        <route edges="1139168722 206489379-AddedOnRampEdge 206489379"/>
    </vehicle>
    <vehicle id="truck218" type="truck_truck" depart="107.48">
        <route edges="170605264 170605269 206489382 206489382-AddedOffRampEdge 43947390#1 277653336 206489380 43947382 43947368-AddedOnRampEdge 43947368"/>
    </vehicle>
    <vehicle id="truck219" type="truck_truck" depart="107.97">
        <route edges="277654571 1122897134 41844004 1120029190 1120029189 43947368-AddedOnRampEdge 43947368"/>
    </vehicle>
    <vehicle id="truck220" type="truck_truck" depart="108.46">
        <route edges="43948501 43948501-AddedOffRampEdge 660731151"/>
    </vehicle>
    <vehicle id="truck222" type="truck_truck" depart="109.45">
        <route edges="70707218 70707218-AddedOffRampEdge 1120029181 1120029186 43947365-AddedOnRampEdge 43947365"/>
    </vehicle>
    <vehicle id="truck224" type="truck_truck" depart="110.43">
        <route edges="70707218 70707218-AddedOffRampEdge 42064105 42064105-AddedOffRampEdge"/>
    </vehicle>
    <vehicle id="truck225" type="truck_truck" depart="110.93">
        <route edges="70707218 70707218-AddedOffRampEdge 1120029181 1120029186 43947365-AddedOnRampEdge"/>
    </vehicle>
    <vehicle id="truck227" type="truck_truck" depart="111.91">
        <route edges="170605264 170605269 206489382 206489382-AddedOffRampEdge 42064232 1120029186 43947365-AddedOnRampEdge 43947365"/>
    </vehicle>
    <vehicle id="truck229" type="truck_truck" depart="112.90">
        <route edges="43948501 43948501-AddedOffRampEdge 660731151 43947369#1-AddedOnRampEdge 43947369#1 170601197"/>
    </vehicle>
    <vehicle id="truck232" type="truck_truck" depart="114.38">
        <route edges="42064105 42064105-AddedOffRampEdge 406802122 1120029183 43947369#1-AddedOnRampEdge 43947369#1 170601197"/>
    </vehicle>
    <vehicle id="truck233" type="truck_truck" depart="114.87">
        <route edges="170605264 170605269 206489382 206489382-AddedOffRampEdge 42064232 1120029186 43947365-AddedOnRampEdge 43947365"/>
    </vehicle>
    <vehicle id="truck234" type="truck_truck" depart="115.36">
        <route edges="43948501 43948501-AddedOffRampEdge 1118511056 1118511056-AddedOffRampEdge 1122897133 1120029190"/>
    </vehicle>
    <vehicle id="truck237" type="truck_truck" depart="116.84">
        <route edges="277654571 1122897134 41844004 1120029190 1120029189 43947368-AddedOnRampEdge 43947368"/>
    </vehicle>
    <vehicle id="truck241" type="truck_truck" depart="118.81">
        <route edges="277654571 1122897134 41844004 1120029190 1120029189 43947368-AddedOnRampEdge 43947368"/>
    </vehicle>
    <vehicle id="truck243" type="truck_truck" depart="119.80">
        <route edges="277654571 170601193 43947365-AddedOnRampEdge"/>
    </vehicle>
    <vehicle id="truck245" type="truck_truck" depart="120.79">
        <route edges="170605264 170605269 1120029182 1120029183 43947369#1-AddedOnRampEdge 43947369#1 170601197"/>
    </vehicle>
    <vehicle id="truck247" type="truck_truck" depart="121.77">
        <route edges="206489382-AddedOffRampEdge 42064232 1120029186 43947365-AddedOnRampEdge 43947365"/>
    </vehicle>
    <vehicle id="truck256" type="truck_truck" depart="126.21">
        <route edges="43948501 43948501-AddedOffRampEdge 1118511056 1118511056-AddedOffRampEdge 1120029196 1139168722 206489379-AddedOnRampEdge 206489379"/>
    </vehicle>
    <vehicle id="truck257" type="truck_truck" depart="126.70">
        <route edges="43948501 43948501-AddedOffRampEdge 1118511056 1118511056-AddedOffRampEdge 1122897133 1120029190 1120029189 43947368-AddedOnRampEdge 43947368"/>
    </vehicle>
    <vehicle id="truck260" type="truck_truck" depart="128.18">
        <route edges="70707218-AddedOffRampEdge 42064105 42064105-AddedOffRampEdge 43947386#1 206489379-AddedOnRampEdge 206489379"/>
    </vehicle>
    <vehicle id="truck261" type="truck_truck" depart="128.67">
        <route edges="43948501 43948501-AddedOffRampEdge 1118511056 1118511056-AddedOffRampEdge 1122897133 1120029190 1120029189 43947368-AddedOnRampEdge 43947368"/>
    </vehicle>
    <vehicle id="truck262" type="truck_truck" depart="129.17">
        <route edges="43948501 43948501-AddedOffRampEdge 1118511056 1118511056-AddedOffRampEdge 1122897133 1120029190 1120029189 43947368-AddedOnRampEdge 43947368"/>
    </vehicle>
    <vehicle id="truck263" type="truck_truck" depart="129.66">
        <route edges="70707218 70707218-AddedOffRampEdge 42064105 42064105-AddedOffRampEdge 406802122 1120029183 43947369#1-AddedOnRampEdge 43947369#1 170601197"/>
    </vehicle>
    <vehicle id="truck265" type="truck_truck" depart="130.65">
        <route edges="170605264 170605269 206489382 206489382-AddedOffRampEdge 42064232 1120029186 43947365-AddedOnRampEdge 43947365"/>
    </vehicle>
    <vehicle id="truck267" type="truck_truck" depart="131.63">
        <route edges="43948501 43948501-AddedOffRampEdge 1118511056 1118511056-AddedOffRampEdge 1122897133 1120029190 1120029189 43947368-AddedOnRampEdge 43947368"/>
    </vehicle>
    <vehicle id="truck268" type="truck_truck" depart="132.13">
        <route edges="170605264 170605269 206489382 206489382-AddedOffRampEdge 42064232 1120029186 43947365-AddedOnRampEdge 43947365"/>
    </vehicle>
    <vehicle id="truck270" type="truck_truck" depart="133.11">
        <route edges="70707218 70707218-AddedOffRampEdge 42064105 42064105-AddedOffRampEdge 43947386#1"/>
    </vehicle>
    <vehicle id="truck273" type="truck_truck" depart="134.59">
        <route edges="70707218 70707218-AddedOffRampEdge 42064105 42064105-AddedOffRampEdge 43947386#1 206489379-AddedOnRampEdge 206489379"/>
    </vehicle>
    <vehicle id="truck276" type="truck_truck" depart="136.07">
        <route edges="1122897134 41844004 1120029190 1120029189 43947368-AddedOnRampEdge 43947368"/>
    </vehicle>
    <vehicle id="truck277" type="truck_truck" depart="136.56">
        <route edges="70707218 70707218-AddedOffRampEdge 1120029181 1120029186 43947365-AddedOnRampEdge 43947365"/>
    </vehicle>
    <vehicle id="truck279" type="truck_truck" depart="137.55">
        <route edges="43948501 43948501-AddedOffRampEdge 1118511056 1118511056-AddedOffRampEdge 1120029196 1139168722 206489379-AddedOnRampEdge 206489379"/>
    </vehicle>
    <vehicle id="truck280" type="truck_truck" depart="138.04">