<?xml version="1.0" encoding="UTF-8"?>

<!-- generated on 2024-12-04 18:35:50.865019 by main.py UNKNOWN
<configuration>
    <net-file value="/root/myvenv/nextpj/src/backend/data/scenario_1733337335/osm.net.xml.gz"/>
    <output-trip-file value="/root/myvenv/nextpj/src/backend/data/scenario_1733337335/osm.passenger.trips.xml"/>
    <route-file value="/root/myvenv/nextpj/src/backend/data/scenario_1733337335/osm.passenger.rou.xml"/>
    <prefix value="passenger"/>
    <vehicle-class value="passenger"/>
    <fringe-factor value="30.0"/>
    <validate value="True"/>
    <insertion-density value="100.0"/>
</configuration>
-->

<!-- generated on 2024-12-04 18:35:50 by Eclipse SUMO duarouter Version 1.21.0
<duarouterConfiguration xmlns:xsi="http://www.w3.org/2001/XMLSchema-instance" xsi:noNamespaceSchemaLocation="http://sumo.dlr.de/xsd/duarouterConfiguration.xsd">

    <input>
        <net-file value="/root/myvenv/nextpj/src/backend/data/scenario_1733337335/osm.net.xml.gz"/>
        <route-files value="/root/myvenv/nextpj/src/backend/data/scenario_1733337335/osm.passenger.trips.xml"/>
    </input>

    <output>
        <output-file value="/root/myvenv/nextpj/src/backend/data/scenario_1733337335/osm.passenger.rou.xml"/>
        <alternatives-output value="NUL"/>
    </output>

    <time>
        <begin value="0.0"/>
        <end value="3600.0"/>
    </time>

    <report>
        <no-warnings value="true"/>
        <ignore-errors value="true"/>
        <no-step-log value="true"/>
    </report>

</duarouterConfiguration>
-->

<routes xmlns:xsi="http://www.w3.org/2001/XMLSchema-instance" xsi:noNamespaceSchemaLocation="http://sumo.dlr.de/xsd/routes_file.xsd">
    <vType id="passenger_passenger" vClass="passenger"/>
    <vehicle id="passenger1" type="passenger_passenger" depart="0.39">
        <route edges="170605264 170605269 1120029182 1120029183 43947369#1-AddedOnRampEdge 43947369#1 170601197"/>
    </vehicle>
    <vehicle id="passenger5" type="passenger_passenger" depart="1.97">
        <route edges="170605264 170605269 206489382 206489382-AddedOffRampEdge"/>
    </vehicle>
    <vehicle id="passenger6" type="passenger_passenger" depart="2.37">
        <route edges="1120029183 43947369#1-AddedOnRampEdge 43947369#1 170601197"/>
    </vehicle>
    <vehicle id="passenger8" type="passenger_passenger" depart="3.16">
        <route edges="170605264 170605269 206489382 206489382-AddedOffRampEdge 42064232 1120029186 43947365-AddedOnRampEdge 43947365"/>
    </vehicle>
    <vehicle id="passenger10" type="passenger_passenger" depart="3.94">
        <route edges="70707218 70707218-AddedOffRampEdge 1120029181 1120029186 43947365-AddedOnRampEdge 43947365"/>
    </vehicle>
    <vehicle id="passenger12" type="passenger_passenger" depart="4.73">
        <route edges="70707218 70707218-AddedOffRampEdge 42064105 42064105-AddedOffRampEdge 43947386#1 206489379-AddedOnRampEdge 206489379"/>
    </vehicle>
    <vehicle id="passenger13" type="passenger_passenger" depart="5.13">
        <route edges="170605264 170605269 1120029182 1120029183 43947369#1-AddedOnRampEdge 43947369#1 170601197"/>
    </vehicle>
    <vehicle id="passenger14" type="passenger_passenger" depart="5.52">
        <route edges="70707218 70707218-AddedOffRampEdge 1120029181 1120029186 43947365-AddedOnRampEdge 43947365"/>
    </vehicle>
    <vehicle id="passenger15" type="passenger_passenger" depart="5.92">
        <route edges="70707218 70707218-AddedOffRampEdge 1120029181 1120029186 43947365-AddedOnRampEdge 43947365"/>
    </vehicle>
    <vehicle id="passenger16" type="passenger_passenger" depart="6.31">
        <route edges="42064105-AddedOffRampEdge 43947386#1"/>
    </vehicle>
    <vehicle id="passenger17" type="passenger_passenger" depart="6.70">
        <route edges="277654571 170601193 43947365-AddedOnRampEdge 43947365"/>
    </vehicle>
    <vehicle id="passenger18" type="passenger_passenger" depart="7.10">
        <route edges="70707218 70707218-AddedOffRampEdge 1120029181 1120029186 43947365-AddedOnRampEdge 43947365"/>
    </vehicle>
    <vehicle id="passenger19" type="passenger_passenger" depart="7.49">
        <route edges="70707218 70707218-AddedOffRampEdge 1120029181 1120029186 43947365-AddedOnRampEdge 43947365"/>
    </vehicle>
    <vehicle id="passenger20" type="passenger_passenger" depart="7.89">
        <route edges="43948501 43948501-AddedOffRampEdge 1118511056 1118511056-AddedOffRampEdge 1122897133 1120029190"/>
    </vehicle>
    <vehicle id="passenger21" type="passenger_passenger" depart="8.28">
        <route edges="170605264 170605269"/>
    </vehicle>
    <vehicle id="passenger23" type="passenger_passenger" depart="9.07">
        <route edges="170605264 170605269 1120029182 1120029183 43947369#1-AddedOnRampEdge 43947369#1 170601197"/>
    </vehicle>
    <vehicle id="passenger24" type="passenger_passenger" depart="9.47">
        <route edges="43948501 43948501-AddedOffRampEdge 1118511056 1118511056-AddedOffRampEdge 1120029196 1139168722 206489379-AddedOnRampEdge 206489379"/>
    </vehicle>
    <vehicle id="passenger26" type="passenger_passenger" depart="10.25">
        <route edges="170605264 170605269 206489382 206489382-AddedOffRampEdge 43947390#1 277653336 206489380 43947382 43947368-AddedOnRampEdge 43947368"/>
    </vehicle>
    <vehicle id="passenger28" type="passenger_passenger" depart="11.04">
        <route edges="170605264 170605269 206489382 206489382-AddedOffRampEdge 42064232 1120029186 43947365-AddedOnRampEdge 43947365"/>
    </vehicle>
    <vehicle id="passenger30" type="passenger_passenger" depart="11.83">
        <route edges="70707218 70707218-AddedOffRampEdge 1120029181 1120029186 43947365-AddedOnRampEdge 43947365"/>
    </vehicle>
    <vehicle id="passenger33" type="passenger_passenger" depart="13.02">
        <route edges="170605264 170605269 1120029182 1120029183"/>
    </vehicle>
    <vehicle id="passenger35" type="passenger_passenger" depart="13.80">
        <route edges="170605264 170605269 206489382 206489382-AddedOffRampEdge 43947390#1 277653336 206489380 43947382 43947368-AddedOnRampEdge"/>
    </vehicle>
    <vehicle id="passenger36" type="passenger_passenger" depart="14.20">
        <route edges="70707218 70707218-AddedOffRampEdge 42064105 42064105-AddedOffRampEdge 43947386#1 206489379-AddedOnRampEdge 206489379"/>
    </vehicle>
    <vehicle id="passenger37" type="passenger_passenger" depart="14.59">
        <route edges="43948501 43948501-AddedOffRampEdge 1118511056 1118511056-AddedOffRampEdge 1120029196 1139168722 206489379-AddedOnRampEdge 206489379"/>
    </vehicle>
    <vehicle id="passenger38" type="passenger_passenger" depart="14.99">
        <route edges="70707218 70707218-AddedOffRampEdge 42064105 42064105-AddedOffRampEdge 43947386#1 206489379-AddedOnRampEdge 206489379"/>
    </vehicle>
    <vehicle id="passenger39" type="passenger_passenger" depart="15.38">
        <route edges="170605264 170605269 1120029182 1120029183 43947369#1-AddedOnRampEdge 43947369#1 170601197"/>
    </vehicle>
    <vehicle id="passenger40" type="passenger_passenger" depart="15.78">
        <route edges="43947369#1 170601197"/>
    </vehicle>
    <vehicle id="passenger45" type="passenger_passenger" depart="17.75">
        <route edges="170605264 170605269 206489382 206489382-AddedOffRampEdge 42064232 1120029186 43947365-AddedOnRampEdge 43947365"/>
    </vehicle>
    <vehicle id="passenger46" type="passenger_passenger" depart="18.14">
        <route edges="43948501-AddedOffRampEdge 1118511056 1118511056-AddedOffRampEdge 1120029196 1139168722 206489379-AddedOnRampEdge 206489379"/>
    </vehicle>
    <vehicle id="passenger47" type="passenger_passenger" depart="18.54">
        <route edges="1120029196 1139168722 206489379-AddedOnRampEdge 206489379"/>
    </vehicle>
    <vehicle id="passenger48" type="passenger_passenger" depart="18.93">
        <route edges="70707218-AddedOffRampEdge 42064105"/>
    </vehicle>
    <vehicle id="passenger52" type="passenger_passenger" depart="20.51">
        <route edges="170605264 170605269 206489382 206489382-AddedOffRampEdge 42064232 1120029186 43947365-AddedOnRampEdge 43947365"/>
    </vehicle>
    <vehicle id="passenger55" type="passenger_passenger" depart="21.69">
        <route edges="70707218 70707218-AddedOffRampEdge 42064105 42064105-AddedOffRampEdge 406802122 1120029183 43947369#1-AddedOnRampEdge 43947369#1 170601197"/>
    </vehicle>
    <vehicle id="passenger59" type="passenger_passenger" depart="23.27">
        <route edges="43948501 43948501-AddedOffRampEdge 660731151 43947369#1-AddedOnRampEdge 43947369#1 170601197"/>
    </vehicle>
    <vehicle id="passenger62" type="passenger_passenger" depart="24.45">
        <route edges="1118511056 1118511056-AddedOffRampEdge 1120029196 1139168722 206489379-AddedOnRampEdge 206489379"/>
    </vehicle>
    <vehicle id="passenger68" type="passenger_passenger" depart="26.82">
        <route edges="1122897133 1120029190 1120029189 43947368-AddedOnRampEdge 43947368"/>
    </vehicle>
    <vehicle id="passenger69" type="passenger_passenger" depart="27.21">
        <route edges="43948501 43948501-AddedOffRampEdge 660731151 43947369#1-AddedOnRampEdge 43947369#1 170601197"/>
    </vehicle>
    <vehicle id="passenger70" type="passenger_passenger" depart="27.61">
        <route edges="277654571 170601193 43947365-AddedOnRampEdge 43947365"/>
    </vehicle>
    <vehicle id="passenger71" type="passenger_passenger" depart="28.00">
        <route edges="170605264 170605269 206489382 206489382-AddedOffRampEdge 43947390#1 277653336 206489380 43947382 43947368-AddedOnRampEdge 43947368"/>
    </vehicle>
    <vehicle id="passenger75" type="passenger_passenger" depart="29.58">
        <route edges="70707218-AddedOffRampEdge 1120029181 1120029186 43947365-AddedOnRampEdge 43947365"/>
    </vehicle>
    <vehicle id="passenger77" type="passenger_passenger" depart="30.37">
        <route edges="170605264 170605269 1120029182 1120029183 43947369#1-AddedOnRampEdge 43947369#1 170601197"/>
    </vehicle>
    <vehicle id="passenger78" type="passenger_passenger" depart="30.76">
        <route edges="277654571 170601193 43947365-AddedOnRampEdge 43947365"/>
    </vehicle>
    <vehicle id="passenger79" type="passenger_passenger" depart="31.16">
        <route edges="170605264 170605269 1120029182 1120029183 43947369#1-AddedOnRampEdge 43947369#1 170601197"/>
    </vehicle>
    <vehicle id="passenger81" type="passenger_passenger" depart="31.95">
        <route edges="170605264 170605269 206489382 206489382-AddedOffRampEdge 43947390#1 277653336 206489380 43947382 43947368-AddedOnRampEdge 43947368"/>
    </vehicle>
    <vehicle id="passenger83" type="passenger_passenger" depart="32.74">
        <route edges="170605264 170605269 206489382 206489382-AddedOffRampEdge 42064232 1120029186 43947365-AddedOnRampEdge 43947365"/>
    </vehicle>
    <vehicle id="passenger84" type="passenger_passenger" depart="33.13">
        <route edges="170605264 170605269 1120029182 1120029183 43947369#1-AddedOnRampEdge 43947369#1 170601197"/>
    </vehicle>
    <vehicle id="passenger85" type="passenger_passenger" depart="33.52">
        <route edges="70707218 70707218-AddedOffRampEdge 1120029181 1120029186 43947365-AddedOnRampEdge 43947365"/>
    </vehicle>
    <vehicle id="passenger86" type="passenger_passenger" depart="33.92">
        <route edges="277654571 1122897134 41844004 1120029190 1120029189 43947368-AddedOnRampEdge 43947368"/>
    </vehicle>
    <vehicle id="passenger87" type="passenger_passenger" depart="34.31">
        <route edges="70707218 70707218-AddedOffRampEdge 42064105 42064105-AddedOffRampEdge 406802122 1120029183 43947369#1-AddedOnRampEdge 43947369#1 170601197"/>
    </vehicle>
    <vehicle id="passenger89" type="passenger_passenger" depart="35.10">
        <route edges="277654571 1122897134 1120029191 1139168722 206489379-AddedOnRampEdge 206489379"/>
    </vehicle>
    <vehicle id="passenger91" type="passenger_passenger" depart="35.89">
        <route edges="70707218 70707218-AddedOffRampEdge 42064105 42064105-AddedOffRampEdge 406802122 1120029183 43947369#1-AddedOnRampEdge 43947369#1 170601197"/>
    </vehicle>
    <vehicle id="passenger92" type="passenger_passenger" depart="36.29">
        <route edges="277654571 1122897134 1120029191 1139168722 206489379-AddedOnRampEdge 206489379"/>
    </vehicle>
    <vehicle id="passenger93" type="passenger_passenger" depart="36.68">
        <route edges="70707218 70707218-AddedOffRampEdge 42064105 42064105-AddedOffRampEdge 406802122 1120029183 43947369#1-AddedOnRampEdge 43947369#1 170601197"/>
    </vehicle>
    <vehicle id="passenger96" type="passenger_passenger" depart="37.86">
        <route edges="170605264 170605269 206489382 206489382-AddedOffRampEdge 43947390#1 277653336 206489380 43947382 43947368-AddedOnRampEdge 43947368"/>
    </vehicle>
    <vehicle id="passenger97" type="passenger_passenger" depart="38.26">
        <route edges="277654571 1122897134 41844004 1120029190 1120029189 43947368-AddedOnRampEdge 43947368"/>
    </vehicle>
    <vehicle id="passenger101" type="passenger_passenger" depart="39.83">
        <route edges="70707218 70707218-AddedOffRampEdge 42064105 42064105-AddedOffRampEdge 406802122 1120029183 43947369#1-AddedOnRampEdge 43947369#1 170601197"/>
    </vehicle>
    <vehicle id="passenger105" type="passenger_passenger" depart="41.41">
        <route edges="170605264 170605269 206489382 206489382-AddedOffRampEdge 43947390#1 277653336 206489380 43947382 43947368-AddedOnRampEdge 43947368"/>
    </vehicle>
    <vehicle id="passenger106" type="passenger_passenger" depart="41.81">
        <route edges="277654571 1122897134 1120029191 1139168722 206489379-AddedOnRampEdge 206489379"/>
    </vehicle>
    <vehicle id="passenger107" type="passenger_passenger" depart="42.20">
        <route edges="70707218 70707218-AddedOffRampEdge"/>
    </vehicle>
    <vehicle id="passenger110" type="passenger_passenger" depart="43.38">
        <route edges="70707218 70707218-AddedOffRampEdge 1120029181 1120029186 43947365-AddedOnRampEdge 43947365"/>
    </vehicle>
    <vehicle id="passenger111" type="passenger_passenger" depart="43.78">
        <route edges="42064232 1120029186 43947365-AddedOnRampEdge"/>
    </vehicle>
    <vehicle id="passenger113" type="passenger_passenger" depart="44.57">
        <route edges="277654571 1122897134 41844004 1120029190 1120029189 43947368-AddedOnRampEdge 43947368"/>
    </vehicle>
    <vehicle id="passenger114" type="passenger_passenger" depart="44.96">
        <route edges="170605264 170605269 1120029182 1120029183 43947369#1-AddedOnRampEdge"/>
    </vehicle>
    <vehicle id="passenger117" type="passenger_passenger" depart="46.15">
        <route edges="170605264 170605269 1120029182 1120029183 43947369#1-AddedOnRampEdge 43947369#1 170601197"/>
    </vehicle>
    <vehicle id="passenger118" type="passenger_passenger" depart="46.54">
        <route edges="70707218 70707218-AddedOffRampEdge 42064105 42064105-AddedOffRampEdge 406802122 1120029183 43947369#1-AddedOnRampEdge 43947369#1 170601197"/>
    </vehicle>
    <vehicle id="passenger120" type="passenger_passenger" depart="47.33">
        <route edges="277654571 170601193 43947365-AddedOnRampEdge 43947365"/>
    </vehicle>
    <vehicle id="passenger121" type="passenger_passenger" depart="47.72">
        <route edges="41844004 1120029190 1120029189 43947368-AddedOnRampEdge 43947368"/>
    </vehicle>
    <vehicle id="passenger122" type="passenger_passenger" depart="48.12">
        <route edges="170605264 170605269 206489382 206489382-AddedOffRampEdge 42064232 1120029186 43947365-AddedOnRampEdge 43947365"/>
    </vehicle>
    <vehicle id="passenger124" type="passenger_passenger" depart="48.91">
        <route edges="43948501 43948501-AddedOffRampEdge 1118511056 1118511056-AddedOffRampEdge 1120029196 1139168722 206489379-AddedOnRampEdge 206489379"/>
    </vehicle>
    <vehicle id="passenger125" type="passenger_passenger" depart="49.30">
        <route edges="277653336 206489380 43947382 43947368-AddedOnRampEdge 43947368"/>
    </vehicle>
    <vehicle id="passenger126" type="passenger_passenger" depart="49.69">
        <route edges="1122897134 1120029191 1139168722 206489379-AddedOnRampEdge 206489379"/>
    </vehicle>
    <vehicle id="passenger127" type="passenger_passenger" depart="50.09">
        <route edges="70707218-AddedOffRampEdge"/>
    </vehicle>
    <vehicle id="passenger129" type="passenger_passenger" depart="50.88">
        <route edges="170605264 170605269 206489382 206489382-AddedOffRampEdge 43947390#1 277653336 206489380 43947382 43947368-AddedOnRampEdge 43947368"/>
    </vehicle>
    <vehicle id="passenger132" type="passenger_passenger" depart="52.06">
        <route edges="70707218 70707218-AddedOffRampEdge 1120029181 1120029186 43947365-AddedOnRampEdge 43947365"/>
    </vehicle>
    <vehicle id="passenger133" type="passenger_passenger" depart="52.46">
        <route edges="43948501 43948501-AddedOffRampEdge 660731151"/>
    </vehicle>
    <vehicle id="passenger134" type="passenger_passenger" depart="52.85">
        <route edges="43948501 43948501-AddedOffRampEdge 1118511056 1118511056-AddedOffRampEdge"/>
    </vehicle>
    <vehicle id="passenger135" type="passenger_passenger" depart="53.24">
        <route edges="70707218 70707218-AddedOffRampEdge 42064105 42064105-AddedOffRampEdge 43947386#1 206489379-AddedOnRampEdge 206489379"/>
    </vehicle>
    <vehicle id="passenger136" type="passenger_passenger" depart="53.64">
        <route edges="43948501 43948501-AddedOffRampEdge 1118511056 1118511056-AddedOffRampEdge 1122897133 1120029190 1120029189 43947368-AddedOnRampEdge 43947368"/>
    </vehicle>
    <vehicle id="passenger137" type="passenger_passenger" depart="54.03">
        <route edges="170605264 170605269 1120029182 1120029183 43947369#1-AddedOnRampEdge 43947369#1 170601197"/>
    </vehicle>
    <vehicle id="passenger138" type="passenger_passenger" depart="54.43">
        <route edges="170605264 170605269 206489382 206489382-AddedOffRampEdge 42064232 1120029186 43947365-AddedOnRampEdge 43947365"/>
    </vehicle>
    <vehicle id="passenger139" type="passenger_passenger" depart="54.82">
        <route edges="170605264 170605269 206489382 206489382-AddedOffRampEdge 42064232 1120029186 43947365-AddedOnRampEdge 43947365"/>
    </vehicle>
    <vehicle id="passenger140" type="passenger_passenger" depart="55.22">
        <route edges="43948501 43948501-AddedOffRampEdge 660731151 43947369#1-AddedOnRampEdge 43947369#1 170601197"/>
    </vehicle>
    <vehicle id="passenger141" type="passenger_passenger" depart="55.61">
        <route edges="43948501 43948501-AddedOffRampEdge 660731151 43947369#1-AddedOnRampEdge 43947369#1 170601197"/>
    </vehicle>
    <vehicle id="passenger142" type="passenger_passenger" depart="56.01">
        <route edges="277654571 1122897134 41844004 1120029190 1120029189 43947368-AddedOnRampEdge 43947368"/>
    </vehicle>
    <vehicle id="passenger143" type="passenger_passenger" depart="56.40">
        <route edges="70707218 70707218-AddedOffRampEdge 42064105 42064105-AddedOffRampEdge 406802122 1120029183 43947369#1-AddedOnRampEdge 43947369#1 170601197"/>
    </vehicle>
    <vehicle id="passenger145" type="passenger_passenger" depart="57.19">
        <route edges="1118511056 1118511056-AddedOffRampEdge 1122897133 1120029190 1120029189 43947368-AddedOnRampEdge 43947368"/>
    </vehicle>
    <vehicle id="passenger146" type="passenger_passenger" depart="57.58">
        <route edges="43948501 43948501-AddedOffRampEdge 660731151 43947369#1-AddedOnRampEdge 43947369#1 170601197"/>
    </vehicle>
    <vehicle id="passenger149" type="passenger_passenger" depart="58.77">
        <route edges="1122897134 41844004 1120029190 1120029189 43947368-AddedOnRampEdge 43947368"/>
    </vehicle>
    <vehicle id="passenger151" type="passenger_passenger" depart="59.55">
        <route edges="70707218 70707218-AddedOffRampEdge 1120029181 1120029186 43947365-AddedOnRampEdge 43947365"/>
    </vehicle>
    <vehicle id="passenger152" type="passenger_passenger" depart="59.95">
        <route edges="170605264 170605269 1120029182 1120029183 43947369#1-AddedOnRampEdge 43947369#1 170601197"/>
    </vehicle>
    <vehicle id="passenger153" type="passenger_passenger" depart="60.34">
        <route edges="206489382 206489382-AddedOffRampEdge 43947390#1 277653336 206489380 43947382 43947368-AddedOnRampEdge 43947368"/>
    </vehicle>
    <vehicle id="passenger155" type="passenger_passenger" depart="61.13">
        <route edges="70707218 70707218-AddedOffRampEdge 42064105 42064105-AddedOffRampEdge 406802122 1120029183 43947369#1-AddedOnRampEdge 43947369#1 170601197"/>
    </vehicle>
    <vehicle id="passenger156" type="passenger_passenger" depart="61.53">
        <route edges="170605264 170605269 1120029182 1120029183 43947369#1-AddedOnRampEdge 43947369#1 170601197"/>
    </vehicle>
    <vehicle id="passenger157" type="passenger_passenger" depart="61.92">
        <route edges="43948501 43948501-AddedOffRampEdge 1118511056 1118511056-AddedOffRampEdge 1122897133 1120029190 1120029189 43947368-AddedOnRampEdge 43947368"/>
    </vehicle>
    <vehicle id="passenger158" type="passenger_passenger" depart="62.32">
        <route edges="277654571 170601193 43947365-AddedOnRampEdge 43947365"/>
    </vehicle>
    <vehicle id="passenger159" type="passenger_passenger" depart="62.71">
        <route edges="170605264 170605269 206489382 206489382-AddedOffRampEdge 43947390#1 277653336 206489380 43947382 43947368-AddedOnRampEdge 43947368"/>
    </vehicle>
    <vehicle id="passenger163" type="passenger_passenger" depart="64.29">
        <route edges="277654571 1122897134 41844004 1120029190 1120029189 43947368-AddedOnRampEdge 43947368"/>
    </vehicle>
    <vehicle id="passenger165" type="passenger_passenger" depart="65.08">
        <route edges="70707218 70707218-AddedOffRampEdge 42064105 42064105-AddedOffRampEdge 406802122 1120029183 43947369#1-AddedOnRampEdge 43947369#1 170601197"/>
    </vehicle>
    <vehicle id="passenger166" type="passenger_passenger" depart="65.47">
        <route edges="43948501-AddedOffRampEdge 660731151 43947369#1-AddedOnRampEdge 43947369#1 170601197"/>
    </vehicle>
    <vehicle id="passenger168" type="passenger_passenger" depart="66.26">
        <route edges="170605264 170605269 206489382 206489382-AddedOffRampEdge 43947390#1 277653336 206489380 43947382 43947368-AddedOnRampEdge 43947368"/>
    </vehicle>
    <vehicle id="passenger169" type="passenger_passenger" depart="66.65">
        <route edges="277654571 1122897134 1120029191 1139168722 206489379-AddedOnRampEdge 206489379"/>
    </vehicle>
    <vehicle id="passenger170" type="passenger_passenger" depart="67.05">
        <route edges="660731151 43947369#1-AddedOnRampEdge 43947369#1 170601197"/>
    </vehicle>
    <vehicle id="passenger171" type="passenger_passenger" depart="67.44">
        <route edges="1120029182 1120029183 43947369#1-AddedOnRampEdge 43947369#1 170601197"/>
    </vehicle>
    <vehicle id="passenger172" type="passenger_passenger" depart="67.84">
        <route edges="277654571 1122897134 41844004 1120029190 1120029189 43947368-AddedOnRampEdge 43947368"/>
    </vehicle>
    <vehicle id="passenger173" type="passenger_passenger" depart="68.23">
        <route edges="70707218 70707218-AddedOffRampEdge 42064105 42064105-AddedOffRampEdge 406802122 1120029183 43947369#1-AddedOnRampEdge 43947369#1 170601197"/>
    </vehicle>
    <vehicle id="passenger174" type="passenger_passenger" depart="68.63">
        <route edges="43948501 43948501-AddedOffRampEdge 1118511056 1118511056-AddedOffRampEdge 1120029196 1139168722 206489379-AddedOnRampEdge 206489379"/>
    </vehicle>
    <vehicle id="passenger175" type="passenger_passenger" depart="69.02">
        <route edges="70707218 70707218-AddedOffRampEdge 42064105 42064105-AddedOffRampEdge"/>
    </vehicle>
    <vehicle id="passenger176" type="passenger_passenger" depart="69.42">
        <route edges="70707218 70707218-AddedOffRampEdge 42064105 42064105-AddedOffRampEdge 406802122 1120029183 43947369#1-AddedOnRampEdge 43947369#1 170601197"/>
    </vehicle>
    <vehicle id="passenger177" type="passenger_passenger" depart="69.81">
        <route edges="70707218 70707218-AddedOffRampEdge 42064105 42064105-AddedOffRampEdge 406802122 1120029183 43947369#1-AddedOnRampEdge 43947369#1 170601197"/>
    </vehicle>
    <vehicle id="passenger178" type="passenger_passenger" depart="70.20">
        <route edges="70707218 70707218-AddedOffRampEdge 42064105 42064105-AddedOffRampEdge 406802122 1120029183 43947369#1-AddedOnRampEdge 43947369#1 170601197"/>
    </vehicle>
    <vehicle id="passenger180" type="passenger_passenger" depart="70.99">
        <route edges="43948501 43948501-AddedOffRampEdge 1118511056 1118511056-AddedOffRampEdge 1120029196 1139168722 206489379-AddedOnRampEdge 206489379"/>
    </vehicle>
    <vehicle id="passenger182" type="passenger_passenger" depart="71.78">
        <route edges="277654571 170601193 43947365-AddedOnRampEdge 43947365"/>
    </vehicle>
    <vehicle id="passenger183" type="passenger_passenger" depart="72.18">
        <route edges="170605264 170605269 206489382 206489382-AddedOffRampEdge 42064232 1120029186 43947365-AddedOnRampEdge 43947365"/>
    </vehicle>
    <vehicle id="passenger184" type="passenger_passenger" depart="72.57">
        <route edges="1118511056 1118511056-AddedOffRampEdge 1122897133 1120029190 1120029189 43947368-AddedOnRampEdge 43947368"/>
    </vehicle>
    <vehicle id="passenger188" type="passenger_passenger" depart="74.15">
        <route edges="43948501 43948501-AddedOffRampEdge 1118511056 1118511056-AddedOffRampEdge 1120029196 1139168722 206489379-AddedOnRampEdge 206489379"/>
    </vehicle>
    <vehicle id="passenger189" type="passenger_passenger" depart="74.54">
        <route edges="206489382-AddedOffRampEdge 43947390#1 277653336 206489380 43947382 43947368-AddedOnRampEdge 43947368"/>
    </vehicle>
    <vehicle id="passenger190" type="passenger_passenger" depart="74.94">
        <route edges="43948501 43948501-AddedOffRampEdge 1118511056 1118511056-AddedOffRampEdge 1120029196 1139168722 206489379-AddedOnRampEdge 206489379"/>
    </vehicle>
    <vehicle id="passenger192" type="passenger_passenger" depart="75.73">
        <route edges="277654571 1122897134 1120029191 1139168722 206489379-AddedOnRampEdge 206489379"/>
    </vehicle>
    <vehicle id="passenger194" type="passenger_passenger" depart="76.51">
        <route edges="70707218 70707218-AddedOffRampEdge 1120029181 1120029186 43947365-AddedOnRampEdge 43947365"/>
    </vehicle>
    <vehicle id="passenger195" type="passenger_passenger" depart="76.91">
        <route edges="70707218 70707218-AddedOffRampEdge 1120029181 1120029186 43947365-AddedOnRampEdge 43947365"/>
    </vehicle>
    <vehicle id="passenger198" type="passenger_passenger" depart="78.09">
        <route edges="277654571 170601193 43947365-AddedOnRampEdge 43947365"/>
    </vehicle>
    <vehicle id="passenger199" type="passenger_passenger" depart="78.49">
        <route edges="43948501 43948501-AddedOffRampEdge 1118511056 1118511056-AddedOffRampEdge 1120029196 1139168722 206489379-AddedOnRampEdge 206489379"/>
    </vehicle>
    <vehicle id="passenger201" type="passenger_passenger" depart="79.28">
        <route edges="277654571 1122897134 41844004 1120029190 1120029189 43947368-AddedOnRampEdge 43947368"/>
    </vehicle>
    <vehicle id="passenger202" type="passenger_passenger" depart="79.67">
        <route edges="660731151 43947369#1-AddedOnRampEdge 43947369#1 170601197"/>
    </vehicle>
    <vehicle id="passenger204" type="passenger_passenger" depart="80.46">
        <route edges="43948501 43948501-AddedOffRampEdge 1118511056 1118511056-AddedOffRampEdge 1120029196 1139168722 206489379-AddedOnRampEdge 206489379"/>
    </vehicle>
    <vehicle id="passenger206" type="passenger_passenger" depart="81.25">
        <route edges="43948501 43948501-AddedOffRampEdge 660731151 43947369#1-AddedOnRampEdge 43947369#1 170601197"/>
    </vehicle>
    <vehicle id="passenger207" type="passenger_passenger" depart="81.64">
        <route edges="170605264 170605269 1120029182"/>
    </vehicle>
    <vehicle id="passenger210" type="passenger_passenger" depart="82.82">
        <route edges="277654571 170601193 43947365-AddedOnRampEdge 43947365"/>
    </vehicle>
    <vehicle id="passenger211" type="passenger_passenger" depart="83.22">
        <route edges="170605264 170605269 206489382 206489382-AddedOffRampEdge 42064232 1120029186 43947365-AddedOnRampEdge 43947365"/>
    </vehicle>
    <vehicle id="passenger213" type="passenger_passenger" depart="84.01">
        <route edges="43948501 43948501-AddedOffRampEdge 1118511056"/>
    </vehicle>
    <vehicle id="passenger214" type="passenger_passenger" depart="84.40">
        <route edges="43948501 43948501-AddedOffRampEdge 1118511056 1118511056-AddedOffRampEdge 1122897133 1120029190 1120029189 43947368-AddedOnRampEdge 43947368"/>
    </vehicle>
    <vehicle id="passenger216" type="passenger_passenger" depart="85.19">
        <route edges="170605264 170605269 1120029182 1120029183 43947369#1-AddedOnRampEdge"/>
    </vehicle>
    <vehicle id="passenger218" type="passenger_passenger" depart="85.98">
        <route edges="170605264 170605269 206489382 206489382-AddedOffRampEdge 43947390#1 277653336 206489380 43947382 43947368-AddedOnRampEdge 43947368"/>
    </vehicle>
    <vehicle id="passenger219" type="passenger_passenger" depart="86.37">
        <route edges="277654571 1122897134 41844004 1120029190 1120029189 43947368-AddedOnRampEdge 43947368"/>
    </vehicle>
    <vehicle id="passenger220" type="passenger_passenger" depart="86.77">
        <route edges="43948501 43948501-AddedOffRampEdge 660731151"/>
    </vehicle>
    <vehicle id="passenger221" type="passenger_passenger" depart="87.16">
        <route edges="43948501 43948501-AddedOffRampEdge 660731151 43947369#1-AddedOnRampEdge 43947369#1"/>