<?xml version="1.0" encoding="UTF-8"?>

<!-- generated on 2024-12-04 18:35:51.867391 by main.py UNKNOWN
<configuration>
    <net-file value="/root/myvenv/nextpj/src/backend/data/scenario_1733337335/osm.net.xml.gz"/>
    <output-trip-file value="/root/myvenv/nextpj/src/backend/data/scenario_1733337335/osm.bus.trips.xml"/>
    <route-file value="/root/myvenv/nextpj/src/backend/data/scenario_1733337335/osm.bus.rou.xml"/>
    <prefix value="bus"/>
    <vehicle-class value="bus"/>
    <fringe-factor value="17.0"/>
    <validate value="True"/>
    <insertion-density value="90.0"/>
</configuration>
-->

<!-- generated on 2024-12-04 18:35:51 by Eclipse SUMO duarouter Version 1.21.0
<duarouterConfiguration xmlns:xsi="http://www.w3.org/2001/XMLSchema-instance" xsi:noNamespaceSchemaLocation="http://sumo.dlr.de/xsd/duarouterConfiguration.xsd">

    <input>
        <net-file value="/root/myvenv/nextpj/src/backend/data/scenario_1733337335/osm.net.xml.gz"/>
        <route-files value="/root/myvenv/nextpj/src/backend/data/scenario_1733337335/osm.bus.trips.xml"/>
    </input>

    <output>
        <output-file value="/root/myvenv/nextpj/src/backend/data/scenario_1733337335/osm.bus.rou.xml"/>
        <alternatives-output value="NUL"/>
    </output>

    <time>
        <begin value="0.0"/>
        <end value="3600.0"/>
    </time>

    <report>
        <no-warnings value="true"/>
        <ignore-errors value="true"/>
        <no-step-log value="true"/>
    </report>

</duarouterConfiguration>
-->

<routes xmlns:xsi="http://www.w3.org/2001/XMLSchema-instance" xsi:noNamespaceSchemaLocation="http://sumo.dlr.de/xsd/routes_file.xsd">
    <vType id="bus_bus" vClass="bus"/>
    <vehicle id="bus1" type="bus_bus" depart="0.44">
        <route edges="170605264 170605269 1120029182 1120029183 43947369#1-AddedOnRampEdge 43947369#1 170601197"/>
    </vehicle>
    <vehicle id="bus5" type="bus_bus" depart="2.19">
        <route edges="170605264 170605269 206489382 206489382-AddedOffRampEdge"/>
    </vehicle>
    <vehicle id="bus8" type="bus_bus" depart="3.51">
        <route edges="170605264 170605269 206489382 206489382-AddedOffRampEdge 42064232 1120029186 43947365-AddedOnRampEdge 43947365"/>
    </vehicle>
    <vehicle id="bus9" type="bus_bus" depart="3.94">
        <route edges="43948501-AddedOffRampEdge 1118511056"/>
    </vehicle>
    <vehicle id="bus12" type="bus_bus" depart="5.26">
        <route edges="70707218 70707218-AddedOffRampEdge 42064105 42064105-AddedOffRampEdge 43947386#1 206489379-AddedOnRampEdge 206489379"/>
    </vehicle>
    <vehicle id="bus13" type="bus_bus" depart="5.70">
        <route edges="1120029196"/>
    </vehicle>
    <vehicle id="bus14" type="bus_bus" depart="6.14">
        <route edges="70707218 70707218-AddedOffRampEdge 1120029181 1120029186 43947365-AddedOnRampEdge 43947365"/>
    </vehicle>
    <vehicle id="bus18" type="bus_bus" depart="7.89">
        <route edges="70707218 70707218-AddedOffRampEdge 1120029181 1120029186 43947365-AddedOnRampEdge 43947365"/>
    </vehicle>
    <vehicle id="bus19" type="bus_bus" depart="8.33">
        <route edges="70707218 70707218-AddedOffRampEdge 1120029181 1120029186 43947365-AddedOnRampEdge 43947365"/>
    </vehicle>
    <vehicle id="bus21" type="bus_bus" depart="9.20">
        <route edges="170605264 170605269 1120029182 1120029183 43947369#1-AddedOnRampEdge 43947369#1 170601197"/>
    </vehicle>
    <vehicle id="bus26" type="bus_bus" depart="11.39">
        <route edges="170605264 170605269 1120029182 1120029183 43947369#1-AddedOnRampEdge"/>
    </vehicle>
    <vehicle id="bus28" type="bus_bus" depart="12.27">
        <route edges="170605264 170605269 206489382 206489382-AddedOffRampEdge 42064232 1120029186 43947365-AddedOnRampEdge 43947365"/>
    </vehicle>
    <vehicle id="bus30" type="bus_bus" depart="13.15">
        <route edges="70707218 70707218-AddedOffRampEdge 1120029181 1120029186 43947365-AddedOnRampEdge 43947365"/>
    </vehicle>
    <vehicle id="bus33" type="bus_bus" depart="14.46">
        <route edges="170605264 170605269 1120029182"/>
    </vehicle>
    <vehicle id="bus35" type="bus_bus" depart="15.34">
        <route edges="170605264 170605269 206489382 206489382-AddedOffRampEdge 43947390#1 277653336 206489380 43947382"/>
    </vehicle>
    <vehicle id="bus36" type="bus_bus" depart="15.78">
        <route edges="70707218 70707218-AddedOffRampEdge 42064105 42064105-AddedOffRampEdge 43947386#1 206489379-AddedOnRampEdge 206489379"/>
    </vehicle>
    <vehicle id="bus37" type="bus_bus" depart="16.21">
        <route edges="43948501 43948501-AddedOffRampEdge 1118511056 1118511056-AddedOffRampEdge 1120029196 1139168722 206489379-AddedOnRampEdge 206489379"/>
    </vehicle>
    <vehicle id="bus38" type="bus_bus" depart="16.65">
        <route edges="70707218 70707218-AddedOffRampEdge 42064105 42064105-AddedOffRampEdge 43947386#1 206489379-AddedOnRampEdge 206489379"/>
    </vehicle>
    <vehicle id="bus39" type="bus_bus" depart="17.09">
        <route edges="170605264 170605269 1120029182 1120029183 43947369#1-AddedOnRampEdge 43947369#1 170601197"/>
    </vehicle>
    <vehicle id="bus40" type="bus_bus" depart="17.53">
        <route edges="42064105-AddedOffRampEdge 406802122 1120029183 43947369#1-AddedOnRampEdge 43947369#1 170601197"/>
    </vehicle>
    <vehicle id="bus41" type="bus_bus" depart="17.97">
        <route edges="43947368-AddedOnRampEdge 43947368"/>
    </vehicle>
    <vehicle id="bus46" type="bus_bus" depart="20.16">
        <route edges="43948501 43948501-AddedOffRampEdge 1118511056 1118511056-AddedOffRampEdge 1120029196 1139168722 206489379-AddedOnRampEdge 206489379"/>
    </vehicle>
    <vehicle id="bus48" type="bus_bus" depart="21.03">
        <route edges="70707218-AddedOffRampEdge 42064105 42064105-AddedOffRampEdge 406802122"/>
    </vehicle>
    <vehicle id="bus52" type="bus_bus" depart="22.79">
        <route edges="170605264 170605269 206489382 206489382-AddedOffRampEdge 42064232 1120029186 43947365-AddedOnRampEdge 43947365"/>
    </vehicle>
    <vehicle id="bus53" type="bus_bus" depart="23.23">
        <route edges="1122897134 1120029191 1139168722 206489379-AddedOnRampEdge 206489379"/>
    </vehicle>
    <vehicle id="bus55" type="bus_bus" depart="24.10">
        <route edges="70707218 70707218-AddedOffRampEdge 42064105 42064105-AddedOffRampEdge 406802122 1120029183 43947369#1-AddedOnRampEdge 43947369#1 170601197"/>
    </vehicle>
    <vehicle id="bus58" type="bus_bus" depart="25.42">
        <route edges="170605264 170605269 206489382 206489382-AddedOffRampEdge 42064232 1120029186 43947365-AddedOnRampEdge 43947365"/>
    </vehicle>
    <vehicle id="bus59" type="bus_bus" depart="25.86">
        <route edges="43947369#1-AddedOnRampEdge 43947369#1 170601197"/>
    </vehicle>
    <vehicle id="bus62" type="bus_bus" depart="27.17">
        <route edges="1118511056 1118511056-AddedOffRampEdge 1120029196 1139168722 206489379-AddedOnRampEdge 206489379"/>
    </vehicle>
    <vehicle id="bus65" type="bus_bus" depart="28.48">
        <route edges="170605269 206489382 206489382-AddedOffRampEdge 42064232 1120029186"/>
    </vehicle>
    <vehicle id="bus68" type="bus_bus" depart="29.80">
        <route edges="1120029190 1120029189 43947368-AddedOnRampEdge 43947368"/>
    </vehicle>
    <vehicle id="bus71" type="bus_bus" depart="31.11">
        <route edges="170605264 170605269 206489382 206489382-AddedOffRampEdge 43947390#1 277653336 206489380 43947382 43947368-AddedOnRampEdge 43947368"/>
    </vehicle>
    <vehicle id="bus75" type="bus_bus" depart="32.87">
        <route edges="70707218-AddedOffRampEdge 1120029181 1120029186 43947365-AddedOnRampEdge 43947365"/>
    </vehicle>
    <vehicle id="bus78" type="bus_bus" depart="34.18">
        <route edges="206489382 206489382-AddedOffRampEdge 42064232 1120029186 43947365-AddedOnRampEdge 43947365"/>
    </vehicle>
    <vehicle id="bus79" type="bus_bus" depart="34.62">
        <route edges="170605264 170605269 1120029182 1120029183 43947369#1-AddedOnRampEdge 43947369#1 170601197"/>
    </vehicle>
    <vehicle id="bus81" type="bus_bus" depart="35.50">
        <route edges="170605264 170605269 206489382 206489382-AddedOffRampEdge 43947390#1 277653336 206489380 43947382 43947368-AddedOnRampEdge 43947368"/>
    </vehicle>
    <vehicle id="bus83" type="bus_bus" depart="36.37">
        <route edges="170605264 170605269 206489382 206489382-AddedOffRampEdge 42064232 1120029186 43947365-AddedOnRampEdge 43947365"/>
    </vehicle>
    <vehicle id="bus86" type="bus_bus" depart="37.69">
        <route edges="277654571 1122897134 41844004 1120029190 1120029189 43947368-AddedOnRampEdge 43947368"/>
    </vehicle>
    <vehicle id="bus87" type="bus_bus" depart="38.13">
        <route edges="43948501-AddedOffRampEdge 660731151 43947369#1-AddedOnRampEdge 43947369#1 170601197"/>
    </vehicle>
    <vehicle id="bus88" type="bus_bus" depart="38.56">
        <route edges="1120029196 1139168722 206489379-AddedOnRampEdge 206489379"/>
    </vehicle>
    <vehicle id="bus89" type="bus_bus" depart="39.00">
        <route edges="277654571 1122897134 1120029191 1139168722 206489379-AddedOnRampEdge 206489379"/>
    </vehicle>
    <vehicle id="bus92" type="bus_bus" depart="40.32">
        <route edges="277654571 1122897134 1120029191 1139168722 206489379-AddedOnRampEdge 206489379"/>
    </vehicle>
    <vehicle id="bus93" type="bus_bus" depart="40.76">
        <route edges="70707218 70707218-AddedOffRampEdge 42064105 42064105-AddedOffRampEdge 406802122 1120029183 43947369#1-AddedOnRampEdge 43947369#1 170601197"/>
    </vehicle>
    <vehicle id="bus96" type="bus_bus" depart="42.07">
        <route edges="170605264 170605269 1120029182 1120029183 43947369#1-AddedOnRampEdge 43947369#1"/>
    </vehicle>
    <vehicle id="bus97" type="bus_bus" depart="42.51">
        <route edges="277654571 1122897134 41844004 1120029190 1120029189 43947368-AddedOnRampEdge 43947368"/>
    </vehicle>
    <vehicle id="bus100" type="bus_bus" depart="43.82">
        <route edges="70707218 70707218-AddedOffRampEdge 42064105 42064105-AddedOffRampEdge 406802122 1120029183 43947369#1-AddedOnRampEdge 43947369#1"/>
    </vehicle>
    <vehicle id="bus101" type="bus_bus" depart="44.26">
        <route edges="70707218 70707218-AddedOffRampEdge 42064105 42064105-AddedOffRampEdge 406802122 1120029183 43947369#1-AddedOnRampEdge 43947369#1 170601197"/>
    </vehicle>
    <vehicle id="bus103" type="bus_bus" depart="45.14">
        <route edges="277654571 1122897134 41844004 1120029190 1120029189"/>
    </vehicle>
    <vehicle id="bus105" type="bus_bus" depart="46.01">
        <route edges="170605264 170605269 206489382 206489382-AddedOffRampEdge 43947390#1 277653336 206489380 43947382 43947368-AddedOnRampEdge 43947368"/>
    </vehicle>
    <vehicle id="bus106" type="bus_bus" depart="46.45">
        <route edges="277654571 1122897134 1120029191 1139168722 206489379-AddedOnRampEdge 206489379"/>
    </vehicle>
    <vehicle id="bus107" type="bus_bus" depart="46.89">
        <route edges="70707218 70707218-AddedOffRampEdge"/>
    </vehicle>
    <vehicle id="bus109" type="bus_bus" depart="47.77">
        <route edges="170605264 170605269 1120029182 1120029183 43947369#1-AddedOnRampEdge 43947369#1 170601197"/>
    </vehicle>
    <vehicle id="bus110" type="bus_bus" depart="48.20">
        <route edges="70707218 70707218-AddedOffRampEdge 1120029181 1120029186 43947365-AddedOnRampEdge 43947365"/>
    </vehicle>
    <vehicle id="bus111" type="bus_bus" depart="48.64">
        <route edges="41844004 1120029190 1120029189 43947368-AddedOnRampEdge 43947368"/>
    </vehicle>
    <vehicle id="bus112" type="bus_bus" depart="49.08">
        <route edges="1120029186 43947365-AddedOnRampEdge 43947365"/>
    </vehicle>
    <vehicle id="bus113" type="bus_bus" depart="49.52">
        <route edges="277654571 1122897134 41844004 1120029190 1120029189 43947368-AddedOnRampEdge 43947368"/>
    </vehicle>
    <vehicle id="bus118" type="bus_bus" depart="51.71">
        <route edges="70707218 70707218-AddedOffRampEdge 42064105 42064105-AddedOffRampEdge 406802122 1120029183 43947369#1-AddedOnRampEdge 43947369#1 170601197"/>
    </vehicle>
    <vehicle id="bus120" type="bus_bus" depart="52.59">
        <route edges="277654571 170601193 43947365-AddedOnRampEdge 43947365"/>
    </vehicle>
    <vehicle id="bus122" type="bus_bus" depart="53.46">
        <route edges="170605264 170605269 206489382 206489382-AddedOffRampEdge 42064232 1120029186 43947365-AddedOnRampEdge 43947365"/>
    </vehicle>
    <vehicle id="bus124" type="bus_bus" depart="54.34">
        <route edges="43948501 43948501-AddedOffRampEdge 660731151 43947369#1-AddedOnRampEdge 43947369#1 170601197"/>
    </vehicle>
    <vehicle id="bus127" type="bus_bus" depart="55.65">
        <route edges="70707218-AddedOffRampEdge"/>
    </vehicle>
    <vehicle id="bus129" type="bus_bus" depart="56.53">
        <route edges="170605264 170605269 1120029182 1120029183 43947369#1-AddedOnRampEdge"/>
    </vehicle>
    <vehicle id="bus132" type="bus_bus" depart="57.85">
        <route edges="70707218 70707218-AddedOffRampEdge 1120029181 1120029186 43947365-AddedOnRampEdge 43947365"/>
    </vehicle>
    <vehicle id="bus134" type="bus_bus" depart="58.72">
        <route edges="43948501 43948501-AddedOffRampEdge 1118511056"/>
    </vehicle>
    <vehicle id="bus135" type="bus_bus" depart="59.16">
        <route edges="660731151 43947369#1-AddedOnRampEdge 43947369#1 170601197"/>
    </vehicle>
    <vehicle id="bus136" type="bus_bus" depart="59.60">
        <route edges="43948501 43948501-AddedOffRampEdge 660731151 43947369#1-AddedOnRampEdge"/>
    </vehicle>
    <vehicle id="bus139" type="bus_bus" depart="60.91">
        <route edges="170605264 170605269 206489382 206489382-AddedOffRampEdge 42064232 1120029186 43947365-AddedOnRampEdge 43947365"/>
    </vehicle>
    <vehicle id="bus140" type="bus_bus" depart="61.35">
        <route edges="43948501 43948501-AddedOffRampEdge 660731151 43947369#1-AddedOnRampEdge 43947369#1 170601197"/>
    </vehicle>
    <vehicle id="bus142" type="bus_bus" depart="62.23">
        <route edges="277654571 1122897134 41844004 1120029190 1120029189 43947368-AddedOnRampEdge 43947368"/>
    </vehicle>
    <vehicle id="bus145" type="bus_bus" depart="63.54">
        <route edges="1118511056 1118511056-AddedOffRampEdge 1122897133 1120029190 1120029189 43947368-AddedOnRampEdge 43947368"/>
    </vehicle>
    <vehicle id="bus149" type="bus_bus" depart="65.30">
        <route edges="1120029190 1120029189 43947368-AddedOnRampEdge 43947368"/>
    </vehicle>
    <vehicle id="bus150" type="bus_bus" depart="65.73">
        <route edges="70707218 70707218-AddedOffRampEdge 42064105"/>
    </vehicle>
    <vehicle id="bus151" type="bus_bus" depart="66.17">
        <route edges="70707218 70707218-AddedOffRampEdge 1120029181 1120029186 43947365-AddedOnRampEdge 43947365"/>
    </vehicle>
    <vehicle id="bus153" type="bus_bus" depart="67.05">
        <route edges="170605269 206489382 206489382-AddedOffRampEdge 43947390#1 277653336 206489380 43947382 43947368-AddedOnRampEdge 43947368"/>
    </vehicle>
    <vehicle id="bus154" type="bus_bus" depart="67.49">
        <route edges="43948501 43948501-AddedOffRampEdge 1118511056 1118511056-AddedOffRampEdge 1122897133 1120029190 1120029189 43947368-AddedOnRampEdge 43947368"/>
    </vehicle>
    <vehicle id="bus155" type="bus_bus" depart="67.93">
        <route edges="70707218 70707218-AddedOffRampEdge 42064105 42064105-AddedOffRampEdge 406802122 1120029183 43947369#1-AddedOnRampEdge 43947369#1 170601197"/>
    </vehicle>
    <vehicle id="bus157" type="bus_bus" depart="68.80">
        <route edges="43948501 43948501-AddedOffRampEdge 1118511056 1118511056-AddedOffRampEdge 1122897133 1120029190 1120029189 43947368-AddedOnRampEdge 43947368"/>
    </vehicle>
    <vehicle id="bus158" type="bus_bus" depart="69.24">
        <route edges="277654571 170601193 43947365-AddedOnRampEdge 43947365"/>
    </vehicle>
    <vehicle id="bus159" type="bus_bus" depart="69.68">
        <route edges="170605264 170605269 1120029182 1120029183 43947369#1-AddedOnRampEdge 43947369#1"/>
    </vehicle>
    <vehicle id="bus161" type="bus_bus" depart="70.55">
        <route edges="43948501-AddedOffRampEdge 1118511056 1118511056-AddedOffRampEdge 1122897133 1120029190 1120029189 43947368-AddedOnRampEdge 43947368"/>
    </vehicle>
    <vehicle id="bus162" type="bus_bus" depart="70.99">
        <route edges="1120029181 1120029186 43947365-AddedOnRampEdge 43947365"/>
    </vehicle>
    <vehicle id="bus164" type="bus_bus" depart="71.87">
        <route edges="43948501 43948501-AddedOffRampEdge 1118511056 1118511056-AddedOffRampEdge 1122897133 1120029190 1120029189 43947368-AddedOnRampEdge 43947368"/>
    </vehicle>
    <vehicle id="bus165" type="bus_bus" depart="72.31">
        <route edges="43948501-AddedOffRampEdge 660731151 43947369#1-AddedOnRampEdge 43947369#1 170601197"/>
    </vehicle>
    <vehicle id="bus168" type="bus_bus" depart="73.62">
        <route edges="170605264 170605269 206489382 206489382-AddedOffRampEdge 43947390#1 277653336 206489380 43947382 43947368-AddedOnRampEdge 43947368"/>
    </vehicle>
    <vehicle id="bus170" type="bus_bus" depart="74.50">
        <route edges="43948501 43948501-AddedOffRampEdge 660731151 43947369#1-AddedOnRampEdge 43947369#1 170601197"/>
    </vehicle>
    <vehicle id="bus172" type="bus_bus" depart="75.37">
        <route edges="206489380 43947382 43947368-AddedOnRampEdge 43947368"/>
    </vehicle>
    <vehicle id="bus173" type="bus_bus" depart="75.81">
        <route edges="70707218 70707218-AddedOffRampEdge 42064105 42064105-AddedOffRampEdge 406802122 1120029183 43947369#1-AddedOnRampEdge 43947369#1 170601197"/>
    </vehicle>
    <vehicle id="bus174" type="bus_bus" depart="76.25">
        <route edges="43948501 43948501-AddedOffRampEdge 1118511056 1118511056-AddedOffRampEdge 1120029196 1139168722 206489379-AddedOnRampEdge 206489379"/>
    </vehicle>
    <vehicle id="bus177" type="bus_bus" depart="77.57">
        <route edges="70707218 70707218-AddedOffRampEdge 42064105 42064105-AddedOffRampEdge 406802122 1120029183 43947369#1-AddedOnRampEdge 43947369#1 170601197"/>
    </vehicle>
    <vehicle id="bus178" type="bus_bus" depart="78.00">
        <route edges="70707218 70707218-AddedOffRampEdge 42064105 42064105-AddedOffRampEdge 406802122 1120029183 43947369#1-AddedOnRampEdge 43947369#1 170601197"/>
    </vehicle>
    <vehicle id="bus179" type="bus_bus" depart="78.44">
        <route edges="1122897134 1120029191 1139168722 206489379-AddedOnRampEdge 206489379"/>
    </vehicle>
    <vehicle id="bus180" type="bus_bus" depart="78.88">
        <route edges="43948501 43948501-AddedOffRampEdge 1118511056 1118511056-AddedOffRampEdge 1120029196 1139168722 206489379-AddedOnRampEdge 206489379"/>
    </vehicle>
    <vehicle id="bus182" type="bus_bus" depart="79.76">
        <route edges="277654571 170601193 43947365-AddedOnRampEdge 43947365"/>
    </vehicle>
    <vehicle id="bus183" type="bus_bus" depart="80.20">
        <route edges="170605264 170605269 206489382 206489382-AddedOffRampEdge 42064232 1120029186 43947365-AddedOnRampEdge 43947365"/>
    </vehicle>
    <vehicle id="bus187" type="bus_bus" depart="81.95">
        <route edges="277654571 1122897134 41844004 1120029190"/>
    </vehicle>
    <vehicle id="bus188" type="bus_bus" depart="82.39">
        <route edges="43948501 43948501-AddedOffRampEdge 1118511056 1118511056-AddedOffRampEdge 1120029196 1139168722 206489379-AddedOnRampEdge 206489379"/>
    </vehicle>
    <vehicle id="bus190" type="bus_bus" depart="83.26">
        <route edges="43948501 43948501-AddedOffRampEdge 660731151 43947369#1-AddedOnRampEdge 43947369#1 170601197"/>
    </vehicle>
    <vehicle id="bus194" type="bus_bus" depart="85.02">
        <route edges="70707218 70707218-AddedOffRampEdge 1120029181 1120029186 43947365-AddedOnRampEdge 43947365"/>
    </vehicle>
    <vehicle id="bus195" type="bus_bus" depart="85.45">
        <route edges="70707218 70707218-AddedOffRampEdge 1120029181 1120029186 43947365-AddedOnRampEdge 43947365"/>
    </vehicle>
    <vehicle id="bus198" type="bus_bus" depart="86.77">
        <route edges="277654571 170601193 43947365-AddedOnRampEdge 43947365"/>
    </vehicle>
    <vehicle id="bus199" type="bus_bus" depart="87.21">
        <route edges="43948501 43948501-AddedOffRampEdge 1118511056 1118511056-AddedOffRampEdge 1120029196 1139168722 206489379-AddedOnRampEdge 206489379"/>
    </vehicle>
    <vehicle id="bus201" type="bus_bus" depart="88.08">
        <route edges="277654571 1122897134 41844004 1120029190 1120029189 43947368-AddedOnRampEdge 43947368"/>
    </vehicle>
    <vehicle id="bus202" type="bus_bus" depart="88.52">
        <route edges="43948501 43948501-AddedOffRampEdge 660731151 43947369#1-AddedOnRampEdge 43947369#1 170601197"/>
    </vehicle>
    <vehicle id="bus206" type="bus_bus" depart="90.27">
        <route edges="43948501 43948501-AddedOffRampEdge 660731151 43947369#1-AddedOnRampEdge 43947369#1 170601197"/>
    </vehicle>
    <vehicle id="bus210" type="bus_bus" depart="92.03">
        <route edges="277654571 170601193 43947365-AddedOnRampEdge 43947365"/>
    </vehicle>
    <vehicle id="bus211" type="bus_bus" depart="92.47">
        <route edges="170605264 170605269 206489382 206489382-AddedOffRampEdge 42064232 1120029186 43947365-AddedOnRampEdge 43947365"/>
    </vehicle>
    <vehicle id="bus213" type="bus_bus" depart="93.34">
        <route edges="43948501 43948501-AddedOffRampEdge 1118511056"/>
    </vehicle>
    <vehicle id="bus214" type="bus_bus" depart="93.78">
        <route edges="43948501 43948501-AddedOffRampEdge 1118511056 1118511056-AddedOffRampEdge 1122897133 1120029190 1120029189 43947368-AddedOnRampEdge 43947368"/>
    </vehicle>
    <vehicle id="bus218" type="bus_bus" depart="95.53">
        <route edges="170605264 170605269 206489382 206489382-AddedOffRampEdge 43947390#1 277653336 206489380 43947382 43947368-AddedOnRampEdge 43947368"/>
    </vehicle>
    <vehicle id="bus219" type="bus_bus" depart="95.97">
        <route edges="277654571 1122897134 41844004 1120029190 1120029189 43947368-AddedOnRampEdge 43947368"/>
    </vehicle>
    <vehicle id="bus220" type="bus_bus" depart="96.41">
        <route edges="43948501 43948501-AddedOffRampEdge 660731151"/>
    </vehicle>
    <vehicle id="bus222" type="bus_bus" depart="97.29">
        <route edges="70707218 70707218-AddedOffRampEdge 1120029181 1120029186 43947365-AddedOnRampEdge 43947365"/>
    </vehicle>
    <vehicle id="bus224" type="bus_bus" depart="98.16">
        <route edges="70707218 70707218-AddedOffRampEdge 42064105"/>
    </vehicle>
    <vehicle id="bus225" type="bus_bus" depart="98.60">
        <route edges="70707218 70707218-AddedOffRampEdge 1120029181 1120029186 43947365-AddedOnRampEdge"/>
    </vehicle>
    <vehicle id="bus227" type="bus_bus" depart="99.48">
        <route edges="170605264 170605269 206489382 206489382-AddedOffRampEdge 42064232 1120029186 43947365-AddedOnRampEdge 43947365"/>
    </vehicle>
    <vehicle id="bus233" type="bus_bus" depart="102.11">
        <route edges="170605264 170605269 206489382 206489382-AddedOffRampEdge 42064232 1120029186 43947365-AddedOnRampEdge 43947365"/>
    </vehicle>
    <vehicle id="bus234" type="bus_bus" depart="102.54">
        <route edges="43948501 43948501-AddedOffRampEdge 1118511056 1118511056-AddedOffRampEdge 1122897133 1120029190 1120029189"/>
    </vehicle>
    <vehicle id="bus235" type="bus_bus" depart="102.98">
        <route edges="277654571 1122897134 41844004"/>
    </vehicle>
    <vehicle id="bus237" type="bus_bus" depart="103.86">
        <route edges="277654571 1122897134 41844004 1120029190 1120029189 43947368-AddedOnRampEdge 43947368"/>
    </vehicle>
    <vehicle id="bus241" type="bus_bus" depart="105.61">
        <route edges="277653336 206489380 43947382 43947368-AddedOnRampEdge 43947368"/>
    </vehicle>
    <vehicle id="bus242" type="bus_bus" depart="106.05">
        <route edges="70707218 70707218-AddedOffRampEdge 42064105 42064105-AddedOffRampEdge 43947386#1"/>
    </vehicle>
    <vehicle id="bus243" type="bus_bus" depart="106.49">
        <route edges="277654571 170601193 43947365-AddedOnRampEdge"/>
    </vehicle>
    <vehicle id="bus245" type="bus_bus" depart="107.37">
        <route edges="170605264 170605269 1120029182 1120029183 43947369#1-AddedOnRampEdge 43947369#1 170601197"/>
    </vehicle>
    <vehicle id="bus247" type="bus_bus" depart="108.24">
        <route edges="206489382 206489382-AddedOffRampEdge 42064232 1120029186 43947365-AddedOnRampEdge 43947365"/>
    </vehicle>
    <vehicle id="bus249" type="bus_bus" depart="109.12">
        <route edges="277654571 170601193"/>
    </vehicle>
    <vehicle id="bus252" type="bus_bus" depart="110.43">
        <route edges="1120029181 1120029186 43947365-AddedOnRampEdge 43947365"/>
    </vehicle>
    <vehicle id="bus256" type="bus_bus" depart="112.19">
        <route edges="43948501 43948501-AddedOffRampEdge 1118511056 1118511056-AddedOffRampEdge 1120029196 1139168722 206489379-AddedOnRampEdge 206489379"/>
    </vehicle>
    <vehicle id="bus257" type="bus_bus" depart="112.62">
        <route edges="43948501 43948501-AddedOffRampEdge 1118511056 1118511056-AddedOffRampEdge 1122897133 1120029190 1120029189 43947368-AddedOnRampEdge 43947368"/>
    </vehicle>
    <vehicle id="bus260" type="bus_bus" depart="113.94">
        <route edges="70707218-AddedOffRampEdge 42064105 42064105-AddedOffRampEdge 43947386#1 206489379-AddedOnRampEdge 206489379"/>
    </vehicle>
    <vehicle id="bus261" type="bus_bus" depart="114.38">
        <route edges="43948501 43948501-AddedOffRampEdge 1118511056 1118511056-AddedOffRampEdge 1122897133 1120029190 1120029189 43947368-AddedOnRampEdge 43947368"/>
    </vehicle>
    <vehicle id="bus262" type="bus_bus" depart="114.82">
        <route edges="43948501 43948501-AddedOffRampEdge 1118511056 1118511056-AddedOffRampEdge 1122897133 1120029190 1120029189 43947368-AddedOnRampEdge 43947368"/>
    </vehicle>
    <vehicle id="bus263" type="bus_bus" depart="115.25">
        <route edges="70707218 70707218-AddedOffRampEdge 42064105 42064105-AddedOffRampEdge 406802122 1120029183 43947369#1-AddedOnRampEdge 43947369#1 170601197"/>
    </vehicle>
    <vehicle id="bus265" type="bus_bus" depart="116.13">
        <route edges="170601193 43947365-AddedOnRampEdge 43947365"/>
    </vehicle>
    <vehicle id="bus267" type="bus_bus" depart="117.01">
        <route edges="43948501 43948501-AddedOffRampEdge 1118511056 1118511056-AddedOffRampEdge 1122897133 1120029190 1120029189 43947368-AddedOnRampEdge 43947368"/>
    </vehicle>
    <vehicle id="bus268" type="bus_bus" depart="117.44">
        <route edges="170605264 170605269 206489382 206489382-AddedOffRampEdge 42064232 1120029186 43947365-AddedOnRampEdge 43947365"/>
    </vehicle>
    <vehicle id="bus273" type="bus_bus" depart="119.64">
        <route edges="70707218 70707218-AddedOffRampEdge 42064105 42064105-AddedOffRampEdge 43947386#1 206489379-AddedOnRampEdge 206489379"/>
    </vehicle>
    <vehicle id="bus274" type="bus_bus" depart="120.07">
        <route edges="43948501 43948501-AddedOffRampEdge 1118511056 1118511056-AddedOffRampEdge 1122897133 1120029190"/>
    </vehicle>
    <vehicle id="bus276" type="bus_bus" depart="120.95">
        <route edges="1122897133 1120029190 1120029189 43947368-AddedOnRampEdge 43947368"/>
    </vehicle>
    <vehicle id="bus277" type="bus_bus" depart="121.39">
        <route edges="70707218 70707218-AddedOffRampEdge 1120029181 1120029186 43947365-AddedOnRampEdge 43947365"/>
    </vehicle>
    <vehicle id="bus279" type="bus_bus" depart="122.27">
        <route edges="43948501 43948501-AddedOffRampEdge 1118511056 1118511056-AddedOffRampEdge 1120029196 1139168722 206489379-AddedOnRampEdge 206489379"/>
    </vehicle>
    <vehicle id="bus280" type="bus_bus" depart="122.70">
        <route edges="277654571 1122897134 1120029191 1139168722 206489379-AddedOnRampEdge 206489379"/>
    </vehicle>
    <vehicle id="bus281" type="bus_bus" depart="123.14">
        <route edges="277654571 1122897134 1120029191 1139168722 206489379-AddedOnRampEdge 206489379"/>
    </vehicle>
    <vehicle id="bus284" type="bus_bus" depart="124.46">
        <route edges="43947390#1 277653336 206489380 43947382 43947368-AddedOnRampEdge 43947368"/>
    </vehicle>
    <vehicle id="bus285" type="bus_bus" depart="124.89">
        <route edges="43948501 43948501-AddedOffRampEdge 1118511056 1118511056-AddedOffRampEdge 1120029196 1139168722 206489379-AddedOnRampEdge 206489379"/>
    </vehicle>
    <vehicle id="bus287" type="bus_bus" depart="125.77">
        <route edges="170605264 170605269 206489382 206489382-AddedOffRampEdge 43947390#1 277653336 206489380 43947382 43947368-AddedOnRampEdge 43947368"/>
    </vehicle>
    <vehicle id="bus289" type="bus_bus" depart="126.65">
        <route edges="277654571 170601193 43947365-AddedOnRampEdge 43947365"/>
    </vehicle>
    <vehicle id="bus290" type="bus_bus" depart="127.09">
        <route edges="170605264 170605269 206489382 206489382-AddedOffRampEdge 43947390#1 277653336 206489380 43947382 43947368-AddedOnRampEdge 43947368"/>
    </vehicle>
    <vehicle id="bus292" type="bus_bus" depart="127.96">
        <route edges="70707218 70707218-AddedOffRampEdge 42064105 42064105-AddedOffRampEdge 406802122 1120029183 43947369#1-AddedOnRampEdge 43947369#1 170601197"/>
    </vehicle>
    <vehicle id="bus293" type="bus_bus" depart="128.40">
        <route edges="277654571 170601193 43947365-AddedOnRampEdge 43947365"/>
    </vehicle>
    <vehicle id="bus295" type="bus_bus" depart="129.28">
        <route edges="70707218 70707218-AddedOffRampEdge 42064105 42064105-AddedOffRampEdge 406802122 1120029183 43947369#1-AddedOnRampEdge 43947369#1 170601197"/>
    </vehicle>
    <vehicle id="bus296" type="bus_bus" depart="129.72">