<?xml version="1.0" encoding="UTF-8"?>

<!-- generated on 2024-12-04 18:35:51.113974 by main.py UNKNOWN
<configuration>
    <net-file value="/root/myvenv/nextpj/src/backend/data/scenario_1733337335/osm.net.xml.gz"/>
    <output-trip-file value="/root/myvenv/nextpj/src/backend/data/scenario_1733337335/osm.passenger.trips.xml"/>
    <route-file value="/root/myvenv/nextpj/src/backend/data/scenario_1733337335/osm.passenger.rou.xml"/>
    <prefix value="passenger"/>
    <vehicle-class value="passenger"/>
    <fringe-factor value="30.0"/>
    <validate value="True"/>
    <insertion-density value="100.0"/>
</configuration>
-->

<!-- generated on 2024-12-04 18:35:50 by Eclipse SUMO duarouter Version 1.21.0
<duarouterConfiguration xmlns:xsi="http://www.w3.org/2001/XMLSchema-instance" xsi:noNamespaceSchemaLocation="http://sumo.dlr.de/xsd/duarouterConfiguration.xsd">

    <input>
        <net-file value="/root/myvenv/nextpj/src/backend/data/scenario_1733337335/osm.net.xml.gz"/>
        <route-files value="/root/myvenv/nextpj/src/backend/data/scenario_1733337335/osm.passenger.trips.xml"/>
    </input>

    <output>
        <output-file value="/root/myvenv/nextpj/src/backend/data/scenario_1733337335/osm.passenger.trips.xml.tmp"/>
        <alternatives-output value="NUL"/>
        <write-trips value="true"/>
    </output>

    <time>
        <begin value="0.0"/>
        <end value="3600.0"/>
    </time>

    <report>
        <no-warnings value="true"/>
        <ignore-errors value="true"/>
        <no-step-log value="true"/>
    </report>

</duarouterConfiguration>
-->

<routes xmlns:xsi="http://www.w3.org/2001/XMLSchema-instance" xsi:noNamespaceSchemaLocation="http://sumo.dlr.de/xsd/routes_file.xsd">
    <vType id="passenger_passenger" vClass="passenger"/>
    <trip id="passenger1" type="passenger_passenger" depart="0.39" from="170605264" to="170601197"/>
    <trip id="passenger5" type="passenger_passenger" depart="1.97" from="170605264" to="206489382-AddedOffRampEdge"/>
    <trip id="passenger6" type="passenger_passenger" depart="2.37" from="1120029183" to="170601197"/>
    <trip id="passenger8" type="passenger_passenger" depart="3.16" from="170605264" to="43947365"/>
    <trip id="passenger10" type="passenger_passenger" depart="3.94" from="70707218" to="43947365"/>
    <trip id="passenger12" type="passenger_passenger" depart="4.73" from="70707218" to="206489379"/>
    <trip id="passenger13" type="passenger_passenger" depart="5.13" from="170605264" to="170601197"/>
    <trip id="passenger14" type="passenger_passenger" depart="5.52" from="70707218" to="43947365"/>
    <trip id="passenger15" type="passenger_passenger" depart="5.92" from="70707218" to="43947365"/>
    <trip id="passenger16" type="passenger_passenger" depart="6.31" from="42064105-AddedOffRampEdge" to="43947386#1"/>
    <trip id="passenger17" type="passenger_passenger" depart="6.70" from="277654571" to="43947365"/>
    <trip id="passenger18" type="passenger_passenger" depart="7.10" from="70707218" to="43947365"/>
    <trip id="passenger19" type="passenger_passenger" depart="7.49" from="70707218" to="43947365"/>
    <trip id="passenger20" type="passenger_passenger" depart="7.89" from="43948501" to="1120029190"/>
    <trip id="passenger21" type="passenger_passenger" depart="8.28" from="170605264" to="170605269"/>
    <trip id="passenger23" type="passenger_passenger" depart="9.07" from="170605264" to="170601197"/>
    <trip id="passenger24" type="passenger_passenger" depart="9.47" from="43948501" to="206489379"/>
    <trip id="passenger26" type="passenger_passenger" depart="10.25" from="170605264" to="43947368"/>
    <trip id="passenger28" type="passenger_passenger" depart="11.04" from="170605264" to="43947365"/>
    <trip id="passenger30" type="passenger_passenger" depart="11.83" from="70707218" to="43947365"/>
    <trip id="passenger33" type="passenger_passenger" depart="13.02" from="170605264" to="1120029183"/>
    <trip id="passenger35" type="passenger_passenger" depart="13.80" from="170605264" to="43947368-AddedOnRampEdge"/>
    <trip id="passenger36" type="passenger_passenger" depart="14.20" from="70707218" to="206489379"/>
    <trip id="passenger37" type="passenger_passenger" depart="14.59" from="43948501" to="206489379"/>
    <trip id="passenger38" type="passenger_passenger" depart="14.99" from="70707218" to="206489379"/>
    <trip id="passenger39" type="passenger_passenger" depart="15.38" from="170605264" to="170601197"/>
    <trip id="passenger40" type="passenger_passenger" depart="15.78" from="43947369#1" to="170601197"/>
    <trip id="passenger45" type="passenger_passenger" depart="17.75" from="170605264" to="43947365"/>
    <trip id="passenger46" type="passenger_passenger" depart="18.14" from="43948501-AddedOffRampEdge" to="206489379"/>
    <trip id="passenger47" type="passenger_passenger" depart="18.54" from="1120029196" to="206489379"/>
    <trip id="passenger48" type="passenger_passenger" depart="18.93" from="70707218-AddedOffRampEdge" to="42064105"/>
    <trip id="passenger52" type="passenger_passenger" depart="20.51" from="170605264" to="43947365"/>
    <trip id="passenger55" type="passenger_passenger" depart="21.69" from="70707218" to="170601197"/>
    <trip id="passenger59" type="passenger_passenger" depart="23.27" from="43948501" to="170601197"/>
    <trip id="passenger62" type="passenger_passenger" depart="24.45" from="1118511056" to="206489379"/>
    <trip id="passenger68" type="passenger_passenger" depart="26.82" from="1122897133" to="43947368"/>
    <trip id="passenger69" type="passenger_passenger" depart="27.21" from="43948501" to="170601197"/>
    <trip id="passenger70" type="passenger_passenger" depart="27.61" from="277654571" to="43947365"/>
    <trip id="passenger71" type="passenger_passenger" depart="28.00" from="170605264" to="43947368"/>
    <trip id="passenger75" type="passenger_passenger" depart="29.58" from="70707218-AddedOffRampEdge" to="43947365"/>
    <trip id="passenger77" type="passenger_passenger" depart="30.37" from="170605264" to="170601197"/>
    <trip id="passenger78" type="passenger_passenger" depart="30.76" from="277654571" to="43947365"/>
    <trip id="passenger79" type="passenger_passenger" depart="31.16" from="170605264" to="170601197"/>
    <trip id="passenger81" type="passenger_passenger" depart="31.95" from="170605264" to="43947368"/>
    <trip id="passenger83" type="passenger_passenger" depart="32.74" from="170605264" to="43947365"/>
    <trip id="passenger84" type="passenger_passenger" depart="33.13" from="170605264" to="170601197"/>
    <trip id="passenger85" type="passenger_passenger" depart="33.52" from="70707218" to="43947365"/>
    <trip id="passenger86" type="passenger_passenger" depart="33.92" from="277654571" to="43947368"/>
    <trip id="passenger87" type="passenger_passenger" depart="34.31" from="70707218" to="170601197"/>
    <trip id="passenger89" type="passenger_passenger" depart="35.10" from="277654571" to="206489379"/>
    <trip id="passenger91" type="passenger_passenger" depart="35.89" from="70707218" to="170601197"/>
    <trip id="passenger92" type="passenger_passenger" depart="36.29" from="277654571" to="206489379"/>
    <trip id="passenger93" type="passenger_passenger" depart="36.68" from="70707218" to="170601197"/>
    <trip id="passenger96" type="passenger_passenger" depart="37.86" from="170605264" to="43947368"/>
    <trip id="passenger97" type="passenger_passenger" depart="38.26" from="277654571" to="43947368"/>
    <trip id="passenger101" type="passenger_passenger" depart="39.83" from="70707218" to="170601197"/>
    <trip id="passenger105" type="passenger_passenger" depart="41.41" from="170605264" to="43947368"/>
    <trip id="passenger106" type="passenger_passenger" depart="41.81" from="277654571" to="206489379"/>
    <trip id="passenger107" type="passenger_passenger" depart="42.20" from="70707218" to="70707218-AddedOffRampEdge"/>
    <trip id="passenger110" type="passenger_passenger" depart="43.38" from="70707218" to="43947365"/>
    <trip id="passenger111" type="passenger_passenger" depart="43.78" from="42064232" to="43947365-AddedOnRampEdge"/>
    <trip id="passenger113" type="passenger_passenger" depart="44.57" from="277654571" to="43947368"/>
    <trip id="passenger114" type="passenger_passenger" depart="44.96" from="170605264" to="43947369#1-AddedOnRampEdge"/>
    <trip id="passenger117" type="passenger_passenger" depart="46.15" from="170605264" to="170601197"/>
    <trip id="passenger118" type="passenger_passenger" depart="46.54" from="70707218" to="170601197"/>
    <trip id="passenger120" type="passenger_passenger" depart="47.33" from="277654571" to="43947365"/>
    <trip id="passenger121" type="passenger_passenger" depart="47.72" from="41844004" to="43947368"/>
    <trip id="passenger122" type="passenger_passenger" depart="48.12" from="170605264" to="43947365"/>
    <trip id="passenger124" type="passenger_passenger" depart="48.91" from="43948501" to="206489379"/>
    <trip id="passenger125" type="passenger_passenger" depart="49.30" from="277653336" to="43947368"/>
    <trip id="passenger126" type="passenger_passenger" depart="49.69" from="1122897134" to="206489379"/>
    <trip id="passenger127" type="passenger_passenger" depart="50.09" from="70707218-AddedOffRampEdge" to="70707218-AddedOffRampEdge"/>
    <trip id="passenger129" type="passenger_passenger" depart="50.88" from="170605264" to="43947368"/>
    <trip id="passenger132" type="passenger_passenger" depart="52.06" from="70707218" to="43947365"/>
    <trip id="passenger133" type="passenger_passenger" depart="52.46" from="43948501" to="660731151"/>
    <trip id="passenger134" type="passenger_passenger" depart="52.85" from="43948501" to="1118511056-AddedOffRampEdge"/>
    <trip id="passenger135" type="passenger_passenger" depart="53.24" from="70707218" to="206489379"/>
    <trip id="passenger136" type="passenger_passenger" depart="53.64" from="43948501" to="43947368"/>
    <trip id="passenger137" type="passenger_passenger" depart="54.03" from="170605264" to="170601197"/>
    <trip id="passenger138" type="passenger_passenger" depart="54.43" from="170605264" to="43947365"/>
    <trip id="passenger139" type="passenger_passenger" depart="54.82" from="170605264" to="43947365"/>
    <trip id="passenger140" type="passenger_passenger" depart="55.22" from="43948501" to="170601197"/>
    <trip id="passenger141" type="passenger_passenger" depart="55.61" from="43948501" to="170601197"/>
    <trip id="passenger142" type="passenger_passenger" depart="56.01" from="277654571" to="43947368"/>
    <trip id="passenger143" type="passenger_passenger" depart="56.40" from="70707218" to="170601197"/>
    <trip id="passenger145" type="passenger_passenger" depart="57.19" from="1118511056" to="43947368"/>
    <trip id="passenger146" type="passenger_passenger" depart="57.58" from="43948501" to="170601197"/>
    <trip id="passenger149" type="passenger_passenger" depart="58.77" from="1122897134" to="43947368"/>
    <trip id="passenger151" type="passenger_passenger" depart="59.55" from="70707218" to="43947365"/>
    <trip id="passenger152" type="passenger_passenger" depart="59.95" from="170605264" to="170601197"/>
    <trip id="passenger153" type="passenger_passenger" depart="60.34" from="206489382" to="43947368"/>
    <trip id="passenger155" type="passenger_passenger" depart="61.13" from="70707218" to="170601197"/>
    <trip id="passenger156" type="passenger_passenger" depart="61.53" from="170605264" to="170601197"/>
    <trip id="passenger157" type="passenger_passenger" depart="61.92" from="43948501" to="43947368"/>
    <trip id="passenger158" type="passenger_passenger" depart="62.32" from="277654571" to="43947365"/>
    <trip id="passenger159" type="passenger_passenger" depart="62.71" from="170605264" to="43947368"/>
    <trip id="passenger163" type="passenger_passenger" depart="64.29" from="277654571" to="43947368"/>
    <trip id="passenger165" type="passenger_passenger" depart="65.08" from="70707218" to="170601197"/>
    <trip id="passenger166" type="passenger_passenger" depart="65.47" from="43948501-AddedOffRampEdge" to="170601197"/>
    <trip id="passenger168" type="passenger_passenger" depart="66.26" from="170605264" to="43947368"/>
    <trip id="passenger169" type="passenger_passenger" depart="66.65" from="277654571" to="206489379"/>
    <trip id="passenger170" type="passenger_passenger" depart="67.05" from="660731151" to="170601197"/>
    <trip id="passenger171" type="passenger_passenger" depart="67.44" from="1120029182" to="170601197"/>
    <trip id="passenger172" type="passenger_passenger" depart="67.84" from="277654571" to="43947368"/>
    <trip id="passenger173" type="passenger_passenger" depart="68.23" from="70707218" to="170601197"/>
    <trip id="passenger174" type="passenger_passenger" depart="68.63" from="43948501" to="206489379"/>
    <trip id="passenger175" type="passenger_passenger" depart="69.02" from="70707218" to="42064105-AddedOffRampEdge"/>
    <trip id="passenger176" type="passenger_passenger" depart="69.42" from="70707218" to="170601197"/>
    <trip id="passenger177" type="passenger_passenger" depart="69.81" from="70707218" to="170601197"/>
    <trip id="passenger178" type="passenger_passenger" depart="70.20" from="70707218" to="170601197"/>
    <trip id="passenger180" type="passenger_passenger" depart="70.99" from="43948501" to="206489379"/>
    <trip id="passenger182" type="passenger_passenger" depart="71.78" from="277654571" to="43947365"/>
    <trip id="passenger183" type="passenger_passenger" depart="72.18" from="170605264" to="43947365"/>
    <trip id="passenger184" type="passenger_passenger" depart="72.57" from="1118511056" to="43947368"/>
    <trip id="passenger188" type="passenger_passenger" depart="74.15" from="43948501" to="206489379"/>
    <trip id="passenger189" type="passenger_passenger" depart="74.54" from="206489382-AddedOffRampEdge" to="43947368"/>
    <trip id="passenger190" type="passenger_passenger" depart="74.94" from="43948501" to="206489379"/>
    <trip id="passenger192" type="passenger_passenger" depart="75.73" from="277654571" to="206489379"/>
    <trip id="passenger194" type="passenger_passenger" depart="76.51" from="70707218" to="43947365"/>
    <trip id="passenger195" type="passenger_passenger" depart="76.91" from="70707218" to="43947365"/>
    <trip id="passenger198" type="passenger_passenger" depart="78.09" from="277654571" to="43947365"/>
    <trip id="passenger199" type="passenger_passenger" depart="78.49" from="43948501" to="206489379"/>
    <trip id="passenger201" type="passenger_passenger" depart="79.28" from="277654571" to="43947368"/>
    <trip id="passenger202" type="passenger_passenger" depart="79.67" from="660731151" to="170601197"/>
    <trip id="passenger204" type="passenger_passenger" depart="80.46" from="43948501" to="206489379"/>
    <trip id="passenger206" type="passenger_passenger" depart="81.25" from="43948501" to="170601197"/>
    <trip id="passenger207" type="passenger_passenger" depart="81.64" from="170605264" to="1120029182"/>
    <trip id="passenger210" type="passenger_passenger" depart="82.82" from="277654571" to="43947365"/>
    <trip id="passenger211" type="passenger_passenger" depart="83.22" from="170605264" to="43947365"/>
    <trip id="passenger213" type="passenger_passenger" depart="84.01" from="43948501" to="1118511056"/>
    <trip id="passenger214" type="passenger_passenger" depart="84.40" from="43948501" to="43947368"/>
    <trip id="passenger216" type="passenger_passenger" depart="85.19" from="170605264" to="43947369#1-AddedOnRampEdge"/>
    <trip id="passenger218" type="passenger_passenger" depart="85.98" from="170605264" to="43947368"/>
    <trip id="passenger219" type="passenger_passenger" depart="86.37" from="277654571" to="43947368"/>
    <trip id="passenger220" type="passenger_passenger" depart="86.77" from="43948501" to="660731151"/>
    <trip id="passenger221" type="passenger_passenger" depart="87.16" from="43948501" to="43947369#1"/>
    <trip id="passenger222" type="passenger_passenger" depart="87.56" from="70707218" to="43947365"/>
    <trip id="passenger225" type="passenger_passenger" depart="88.74" from="70707218" to="43947365-AddedOnRampEdge"/>
    <trip id="passenger227" type="passenger_passenger" depart="89.53" from="170605264" to="43947365"/>
    <trip id="passenger229" type="passenger_passenger" depart="90.32" from="43948501" to="170601197"/>
    <trip id="passenger232" type="passenger_passenger" depart="91.50" from="42064105-AddedOffRampEdge" to="170601197"/>
    <trip id="passenger233" type="passenger_passenger" depart="91.90" from="170605264" to="43947365"/>
    <trip id="passenger234" type="passenger_passenger" depart="92.29" from="43948501" to="1120029196"/>
    <trip id="passenger237" type="passenger_passenger" depart="93.47" from="277654571" to="43947368"/>
    <trip id="passenger241" type="passenger_passenger" depart="95.05" from="277654571" to="43947368"/>
    <trip id="passenger242" type="passenger_passenger" depart="95.45" from="70707218" to="43947369#1"/>
    <trip id="passenger243" type="passenger_passenger" depart="95.84" from="277654571" to="43947365-AddedOnRampEdge"/>
    <trip id="passenger244" type="passenger_passenger" depart="96.23" from="42064232" to="43947365"/>
    <trip id="passenger245" type="passenger_passenger" depart="96.63" from="170605264" to="170601197"/>
    <trip id="passenger247" type="passenger_passenger" depart="97.42" from="277654571" to="43947365"/>
    <trip id="passenger251" type="passenger_passenger" depart="99.00" from="277654571" to="43947365"/>
    <trip id="passenger256" type="passenger_passenger" depart="100.97" from="43948501" to="206489379"/>
    <trip id="passenger257" type="passenger_passenger" depart="101.36" from="43948501" to="43947368"/>
    <trip id="passenger260" type="passenger_passenger" depart="102.54" from="70707218-AddedOffRampEdge" to="206489379"/>
    <trip id="passenger261" type="passenger_passenger" depart="102.94" from="43948501" to="43947368"/>
    <trip id="passenger262" type="passenger_passenger" depart="103.33" from="43948501" to="43947368"/>
    <trip id="passenger263" type="passenger_passenger" depart="103.73" from="70707218" to="170601197"/>
    <trip id="passenger264" type="passenger_passenger" depart="104.12" from="1120029182" to="170601197"/>
    <trip id="passenger265" type="passenger_passenger" depart="104.52" from="170605264" to="43947365"/>
    <trip id="passenger266" type="passenger_passenger" depart="104.91" from="43947369#1" to="170601197"/>
    <trip id="passenger267" type="passenger_passenger" depart="105.31" from="43948501" to="43947368"/>
    <trip id="passenger268" type="passenger_passenger" depart="105.70" from="170605264" to="43947365"/>
    <trip id="passenger269" type="passenger_passenger" depart="106.09" from="43948501" to="170601197"/>
    <trip id="passenger271" type="passenger_passenger" depart="106.88" from="170605264" to="1120029182"/>
    <trip id="passenger272" type="passenger_passenger" depart="107.28" from="206489382-AddedOffRampEdge" to="43947365"/>
    <trip id="passenger273" type="passenger_passenger" depart="107.67" from="70707218" to="206489379"/>
    <trip id="passenger276" type="passenger_passenger" depart="108.86" from="170605264" to="43947368"/>
    <trip id="passenger277" type="passenger_passenger" depart="109.25" from="70707218" to="43947365"/>
    <trip id="passenger279" type="passenger_passenger" depart="110.04" from="43948501" to="206489379"/>
    <trip id="passenger280" type="passenger_passenger" depart="110.43" from="277654571" to="206489379"/>
    <trip id="passenger281" type="passenger_passenger" depart="110.83" from="277654571" to="206489379"/>
    <trip id="passenger283" type="passenger_passenger" depart="111.62" from="170605264" to="43947369#1-AddedOnRampEdge"/>
    <trip id="passenger284" type="passenger_passenger" depart="112.01" from="43948501" to="43947368"/>
    <trip id="passenger285" type="passenger_passenger" depart="112.41" from="43948501" to="206489379"/>
    <trip id="passenger287" type="passenger_passenger" depart="113.19" from="170605264" to="43947368"/>
    <trip id="passenger288" type="passenger_passenger" depart="113.59" from="42064105-AddedOffRampEdge" to="206489379"/>
    <trip id="passenger289" type="passenger_passenger" depart="113.98" from="277654571" to="43947365"/>
    <trip id="passenger290" type="passenger_passenger" depart="114.38" from="170605264" to="43947368"/>
    <trip id="passenger292" type="passenger_passenger" depart="115.17" from="70707218" to="170601197"/>
    <trip id="passenger293" type="passenger_passenger" depart="115.56" from="277654571" to="43947365"/>
    <trip id="passenger295" type="passenger_passenger" depart="116.35" from="70707218" to="170601197"/>
    <trip id="passenger296" type="passenger_passenger" depart="116.74" from="170605264" to="43947368"/>
    <trip id="passenger297" type="passenger_passenger" depart="117.14" from="277654571" to="43947368"/>
    <trip id="passenger298" type="passenger_passenger" depart="117.53" from="43948501" to="170601197"/>
    <trip id="passenger299" type="passenger_passenger" depart="117.93" from="1118511056-AddedOffRampEdge" to="43947368-AddedOnRampEdge"/>
    <trip id="passenger300" type="passenger_passenger" depart="118.32" from="170601193" to="43947365"/>
    <trip id="passenger301" type="passenger_passenger" depart="118.72" from="277654571" to="43947368"/>
    <trip id="passenger303" type="passenger_passenger" depart="119.50" from="277654571" to="43947368"/>
    <trip id="passenger304" type="passenger_passenger" depart="119.90" from="170605264" to="170601197"/>
    <trip id="passenger305" type="passenger_passenger" depart="120.29" from="43948501" to="206489379"/>
    <trip id="passenger306" type="passenger_passenger" depart="120.69" from="43947386#1" to="206489379"/>
    <trip id="passenger307" type="passenger_passenger" depart="121.08" from="42064105" to="206489379"/>
    <trip id="passenger308" type="passenger_passenger" depart="121.48" from="43948501" to="206489379"/>
    <trip id="passenger309" type="passenger_passenger" depart="121.87" from="43948501" to="170601197"/>
    <trip id="passenger310" type="passenger_passenger" depart="122.27" from="170605264" to="170601197"/>
    <trip id="passenger311" type="passenger_passenger" depart="122.66" from="170605264" to="170601197"/>
    <trip id="passenger313" type="passenger_passenger" depart="123.45" from="170605264" to="170601197"/>
    <trip id="passenger314" type="passenger_passenger" depart="123.84" from="277654571" to="43947365"/>
    <trip id="passenger316" type="passenger_passenger" depart="124.63" from="170605264" to="170601197"/>
    <trip id="passenger317" type="passenger_passenger" depart="125.03" from="170605264" to="170601197"/>
    <trip id="passenger319" type="passenger_passenger" depart="125.81" from="42064105" to="170601197"/>
    <trip id="passenger320" type="passenger_passenger" depart="126.21" from="70707218" to="43947365"/>
    <trip id="passenger321" type="passenger_passenger" depart="126.60" from="43948501" to="170601197"/>
    <trip id="passenger323" type="passenger_passenger" depart="127.39" from="70707218" to="43947365"/>
    <trip id="passenger324" type="passenger_passenger" depart="127.79" from="277654571" to="206489379"/>
    <trip id="passenger326" type="passenger_passenger" depart="128.58" from="70707218" to="206489379"/>
    <trip id="passenger327" type="passenger_passenger" depart="128.97" from="70707218" to="206489379"/>
    <trip id="passenger331" type="passenger_passenger" depart="130.55" from="70707218-AddedOffRampEdge" to="170601197"/>
    <trip id="passenger333" type="passenger_passenger" depart="131.34" from="43948501-AddedOffRampEdge" to="170601197"/>
    <trip id="passenger335" type="passenger_passenger" depart="132.13" from="277654571" to="43947368"/>
    <trip id="passenger336" type="passenger_passenger" depart="132.52" from="70707218" to="206489379"/>
    <trip id="passenger338" type="passenger_passenger" depart="133.31" from="43948501" to="43947368-AddedOnRampEdge"/>
    <trip id="passenger339" type="passenger_passenger" depart="133.70" from="170605264" to="170601197"/>
    <trip id="passenger340" type="passenger_passenger" depart="134.10" from="43948501" to="170601197"/>
    <trip id="passenger342" type="passenger_passenger" depart="134.89" from="1118511056" to="206489379"/>
    <trip id="passenger343" type="passenger_passenger" depart="135.28" from="43948501" to="206489379"/>
    <trip id="passenger344" type="passenger_passenger" depart="135.67" from="170605264" to="43947365"/>
    <trip id="passenger345" type="passenger_passenger" depart="136.07" from="43948501" to="206489379"/>
    <trip id="passenger346" type="passenger_passenger" depart="136.46" from="43948501" to="43947368"/>
    <trip id="passenger348" type="passenger_passenger" depart="137.25" from="43948501" to="43947368"/>
    <trip id="passenger350" type="passenger_passenger" depart="138.04" from="43948501" to="43947368"/>
    <trip id="passenger354" type="passenger_passenger" depart="139.62" from="170605269" to="170601197"/>
    <trip id="passenger357" type="passenger_passenger" depart="140.80" from="277654571" to="1139168722"/>
    <trip id="passenger360" type="passenger_passenger" depart="141.99" from="170605264" to="43947382"/>
    <trip id="passenger361" type="passenger_passenger" depart="142.38" from="70707218" to="43947365"/>
    <trip id="passenger362" type="passenger_passenger" depart="142.77" from="70707218" to="70707218-AddedOffRampEdge"/>
    <trip id="passenger363" type="passenger_passenger" depart="143.17" from="43948501" to="170601197"/>
    <trip id="passenger364" type="passenger_passenger" depart="143.56" from="1120029189" to="43947368"/>
    <trip id="passenger365" type="passenger_passenger" depart="143.96" from="277654571" to="43947365"/>
    <trip id="passenger366" type="passenger_passenger" depart="144.35" from="70707218" to="170601197"/>
    <trip id="passenger369" type="passenger_passenger" depart="145.53" from="277654571" to="206489379"/>
    <trip id="passenger370" type="passenger_passenger" depart="145.93" from="43948501" to="43947368"/>
    <trip id="passenger371" type="passenger_passenger" depart="146.32" from="277654571" to="43947365"/>
    <trip id="passenger372" type="passenger_passenger" depart="146.72" from="170605269" to="43947368-AddedOnRampEdge"/>
    <trip id="passenger373" type="passenger_passenger" depart="147.11" from="70707218" to="43947365"/>
    <trip id="passenger374" type="passenger_passenger" depart="147.51" from="277654571" to="206489379"/>
    <trip id="passenger377" type="passenger_passenger" depart="148.69" from="70707218" to="43947365"/>
    <trip id="passenger381" type="passenger_passenger" depart="150.27" from="43948501" to="170601197"/>
    <trip id="passenger383" type="passenger_passenger" depart="151.06" from="277654571" to="43947365"/>
    <trip id="passenger385" type="passenger_passenger" depart="151.85" from="43948501" to="170601197"/>
    <trip id="passenger386" type="passenger_passenger" depart="152.24" from="170605264" to="43947365"/>
    <trip id="passenger392" type="passenger_passenger" depart="154.61" from="170605264" to="43947368"/>
    <trip id="passenger393" type="passenger_passenger" depart="155.00" from="70707218" to="170601197"/>
    <trip id="passenger397" type="passenger_passenger" depart="156.58" from="170605264" to="43947368"/>
    <trip id="passenger398" type="passenger_passenger" depart="156.97" from="277654571" to="43947368"/>
    <trip id="passenger399" type="passenger_passenger" depart="157.37" from="277654571" to="43947368"/>
    <trip id="passenger403" type="passenger_passenger" depart="158.94" from="42064105-AddedOffRampEdge" to="206489379"/>
    <trip id="passenger405" type="passenger_passenger" depart="159.73" from="277654571" to="206489379"/>
    <trip id="passenger406" type="passenger_passenger" depart="160.13" from="170605264" to="43947365"/>
    <trip id="passenger407" type="passenger_passenger" depart="160.52" from="43947369#1-AddedOnRampEdge" to="170601197"/>
    <trip id="passenger408" type="passenger_passenger" depart="160.92" from="43948501" to="1120029189"/>
    <trip id="passenger410" type="passenger_passenger" depart="161.71" from="70707218" to="206489379"/>
    <trip id="passenger411" type="passenger_passenger" depart="162.10" from="43948501" to="43947368"/>
    <trip id="passenger414" type="passenger_passenger" depart="163.28" from="43947390#1" to="43947368"/>
    <trip id="passenger415" type="passenger_passenger" depart="163.68" from="70707218" to="206489379"/>
    <trip id="passenger417" type="passenger_passenger" depart="164.47" from="43948501" to="206489379"/>
    <trip id="passenger418" type="passenger_passenger" depart="164.86" from="43948501" to="170601197"/>
    <trip id="passenger420" type="passenger_passenger" depart="165.65" from="277654571" to="43947365"/>
    <trip id="passenger421" type="passenger_passenger" depart="166.04" from="43948501" to="43947368"/>
    <trip id="passenger423" type="passenger_passenger" depart="166.83" from="277654571" to="206489379"/>
    <trip id="passenger424" type="passenger_passenger" depart="167.23" from="43948501" to="43947368"/>
    <trip id="passenger425" type="passenger_passenger" depart="167.62" from="70707218" to="1120029186"/>
    <trip id="passenger427" type="passenger_passenger" depart="168.41" from="70707218" to="70707218-AddedOffRampEdge"/>
    <trip id="passenger428" type="passenger_passenger" depart="168.80" from="43948501" to="206489379"/>
    <trip id="passenger429" type="passenger_passenger" depart="169.20" from="170605264" to="43947365"/>
    <trip id="passenger430" type="passenger_passenger" depart="169.59" from="70707218" to="206489379"/>
    <trip id="passenger431" type="passenger_passenger" depart="169.99" from="43948501" to="43947368"/>