<?xml version="1.0" encoding="UTF-8"?>

<!-- generated on 2024-12-04 18:35:52.142684 by main.py UNKNOWN
<configuration>
    <net-file value="/root/myvenv/nextpj/src/backend/data/scenario_1733337335/osm.net.xml.gz"/>
    <output-trip-file value="/root/myvenv/nextpj/src/backend/data/scenario_1733337335/osm.bus.trips.xml"/>
    <route-file value="/root/myvenv/nextpj/src/backend/data/scenario_1733337335/osm.bus.rou.xml"/>
    <prefix value="bus"/>
    <vehicle-class value="bus"/>
    <fringe-factor value="17.0"/>
    <validate value="True"/>
    <insertion-density value="90.0"/>
</configuration>
-->

<!-- generated on 2024-12-04 18:35:51 by Eclipse SUMO duarouter Version 1.21.0
<duarouterConfiguration xmlns:xsi="http://www.w3.org/2001/XMLSchema-instance" xsi:noNamespaceSchemaLocation="http://sumo.dlr.de/xsd/duarouterConfiguration.xsd">

    <input>
        <net-file value="/root/myvenv/nextpj/src/backend/data/scenario_1733337335/osm.net.xml.gz"/>
        <route-files value="/root/myvenv/nextpj/src/backend/data/scenario_1733337335/osm.bus.trips.xml"/>
    </input>

    <output>
        <output-file value="/root/myvenv/nextpj/src/backend/data/scenario_1733337335/osm.bus.trips.xml.tmp"/>
        <alternatives-output value="NUL"/>
        <write-trips value="true"/>
    </output>

    <time>
        <begin value="0.0"/>
        <end value="3600.0"/>
    </time>

    <report>
        <no-warnings value="true"/>
        <ignore-errors value="true"/>
        <no-step-log value="true"/>
    </report>

</duarouterConfiguration>
-->

<routes xmlns:xsi="http://www.w3.org/2001/XMLSchema-instance" xsi:noNamespaceSchemaLocation="http://sumo.dlr.de/xsd/routes_file.xsd">
    <vType id="bus_bus" vClass="bus"/>
    <trip id="bus1" type="bus_bus" depart="0.44" from="170605264" to="170601197"/>
    <trip id="bus5" type="bus_bus" depart="2.19" from="170605264" to="206489382-AddedOffRampEdge"/>
    <trip id="bus8" type="bus_bus" depart="3.51" from="170605264" to="43947365"/>
    <trip id="bus9" type="bus_bus" depart="3.94" from="43948501-AddedOffRampEdge" to="1118511056"/>
    <trip id="bus12" type="bus_bus" depart="5.26" from="70707218" to="206489379"/>
    <trip id="bus13" type="bus_bus" depart="5.70" from="1120029196" to="1120029196"/>
    <trip id="bus14" type="bus_bus" depart="6.14" from="70707218" to="43947365"/>
    <trip id="bus18" type="bus_bus" depart="7.89" from="70707218" to="43947365"/>
    <trip id="bus19" type="bus_bus" depart="8.33" from="70707218" to="43947365"/>
    <trip id="bus21" type="bus_bus" depart="9.20" from="170605264" to="170601197"/>
    <trip id="bus26" type="bus_bus" depart="11.39" from="170605264" to="43947369#1-AddedOnRampEdge"/>
    <trip id="bus28" type="bus_bus" depart="12.27" from="170605264" to="43947365"/>
    <trip id="bus30" type="bus_bus" depart="13.15" from="70707218" to="43947365"/>
    <trip id="bus33" type="bus_bus" depart="14.46" from="170605264" to="1120029182"/>
    <trip id="bus35" type="bus_bus" depart="15.34" from="170605264" to="43947382"/>
    <trip id="bus36" type="bus_bus" depart="15.78" from="70707218" to="206489379"/>
    <trip id="bus37" type="bus_bus" depart="16.21" from="43948501" to="206489379"/>
    <trip id="bus38" type="bus_bus" depart="16.65" from="70707218" to="206489379"/>
    <trip id="bus39" type="bus_bus" depart="17.09" from="170605264" to="170601197"/>
    <trip id="bus40" type="bus_bus" depart="17.53" from="42064105-AddedOffRampEdge" to="170601197"/>
    <trip id="bus41" type="bus_bus" depart="17.97" from="43947368-AddedOnRampEdge" to="43947368"/>
    <trip id="bus46" type="bus_bus" depart="20.16" from="43948501" to="206489379"/>
    <trip id="bus48" type="bus_bus" depart="21.03" from="70707218-AddedOffRampEdge" to="406802122"/>
    <trip id="bus52" type="bus_bus" depart="22.79" from="170605264" to="43947365"/>
    <trip id="bus53" type="bus_bus" depart="23.23" from="1122897134" to="206489379"/>
    <trip id="bus55" type="bus_bus" depart="24.10" from="70707218" to="170601197"/>
    <trip id="bus58" type="bus_bus" depart="25.42" from="170605264" to="43947365"/>
    <trip id="bus59" type="bus_bus" depart="25.86" from="43947369#1-AddedOnRampEdge" to="170601197"/>
    <trip id="bus62" type="bus_bus" depart="27.17" from="1118511056" to="206489379"/>
    <trip id="bus65" type="bus_bus" depart="28.48" from="170605269" to="1120029186"/>
    <trip id="bus68" type="bus_bus" depart="29.80" from="1120029190" to="43947368"/>
    <trip id="bus71" type="bus_bus" depart="31.11" from="170605264" to="43947368"/>
    <trip id="bus75" type="bus_bus" depart="32.87" from="70707218-AddedOffRampEdge" to="43947365"/>
    <trip id="bus78" type="bus_bus" depart="34.18" from="206489382" to="43947365"/>
    <trip id="bus79" type="bus_bus" depart="34.62" from="170605264" to="170601197"/>
    <trip id="bus81" type="bus_bus" depart="35.50" from="170605264" to="43947368"/>
    <trip id="bus83" type="bus_bus" depart="36.37" from="170605264" to="43947365"/>
    <trip id="bus86" type="bus_bus" depart="37.69" from="277654571" to="43947368"/>
    <trip id="bus87" type="bus_bus" depart="38.13" from="43948501-AddedOffRampEdge" to="170601197"/>
    <trip id="bus88" type="bus_bus" depart="38.56" from="1120029196" to="206489379"/>
    <trip id="bus89" type="bus_bus" depart="39.00" from="277654571" to="206489379"/>
    <trip id="bus92" type="bus_bus" depart="40.32" from="277654571" to="206489379"/>
    <trip id="bus93" type="bus_bus" depart="40.76" from="70707218" to="170601197"/>
    <trip id="bus96" type="bus_bus" depart="42.07" from="170605264" to="43947369#1"/>
    <trip id="bus97" type="bus_bus" depart="42.51" from="277654571" to="43947368"/>
    <trip id="bus100" type="bus_bus" depart="43.82" from="70707218" to="43947369#1"/>
    <trip id="bus101" type="bus_bus" depart="44.26" from="70707218" to="170601197"/>
    <trip id="bus103" type="bus_bus" depart="45.14" from="277654571" to="1120029189"/>
    <trip id="bus105" type="bus_bus" depart="46.01" from="170605264" to="43947368"/>
    <trip id="bus106" type="bus_bus" depart="46.45" from="277654571" to="206489379"/>
    <trip id="bus107" type="bus_bus" depart="46.89" from="70707218" to="70707218-AddedOffRampEdge"/>
    <trip id="bus109" type="bus_bus" depart="47.77" from="170605264" to="170601197"/>
    <trip id="bus110" type="bus_bus" depart="48.20" from="70707218" to="43947365"/>
    <trip id="bus111" type="bus_bus" depart="48.64" from="41844004" to="43947368"/>
    <trip id="bus112" type="bus_bus" depart="49.08" from="1120029186" to="43947365"/>
    <trip id="bus113" type="bus_bus" depart="49.52" from="277654571" to="43947368"/>
    <trip id="bus118" type="bus_bus" depart="51.71" from="70707218" to="170601197"/>
    <trip id="bus120" type="bus_bus" depart="52.59" from="277654571" to="43947365"/>
    <trip id="bus122" type="bus_bus" depart="53.46" from="170605264" to="43947365"/>
    <trip id="bus124" type="bus_bus" depart="54.34" from="43948501" to="170601197"/>
    <trip id="bus127" type="bus_bus" depart="55.65" from="70707218-AddedOffRampEdge" to="70707218-AddedOffRampEdge"/>
    <trip id="bus129" type="bus_bus" depart="56.53" from="170605264" to="43947369#1-AddedOnRampEdge"/>
    <trip id="bus132" type="bus_bus" depart="57.85" from="70707218" to="43947365"/>
    <trip id="bus134" type="bus_bus" depart="58.72" from="43948501" to="1118511056"/>
    <trip id="bus135" type="bus_bus" depart="59.16" from="660731151" to="170601197"/>
    <trip id="bus136" type="bus_bus" depart="59.60" from="43948501" to="43947369#1-AddedOnRampEdge"/>
    <trip id="bus139" type="bus_bus" depart="60.91" from="170605264" to="43947365"/>
    <trip id="bus140" type="bus_bus" depart="61.35" from="43948501" to="170601197"/>
    <trip id="bus142" type="bus_bus" depart="62.23" from="277654571" to="43947368"/>
    <trip id="bus145" type="bus_bus" depart="63.54" from="1118511056" to="43947368"/>
    <trip id="bus149" type="bus_bus" depart="65.30" from="1120029190" to="43947368"/>
    <trip id="bus150" type="bus_bus" depart="65.73" from="70707218" to="42064105"/>
    <trip id="bus151" type="bus_bus" depart="66.17" from="70707218" to="43947365"/>
    <trip id="bus153" type="bus_bus" depart="67.05" from="170605269" to="43947368"/>
    <trip id="bus154" type="bus_bus" depart="67.49" from="43948501" to="43947368"/>
    <trip id="bus155" type="bus_bus" depart="67.93" from="70707218" to="170601197"/>
    <trip id="bus157" type="bus_bus" depart="68.80" from="43948501" to="43947368"/>
    <trip id="bus158" type="bus_bus" depart="69.24" from="277654571" to="43947365"/>
    <trip id="bus159" type="bus_bus" depart="69.68" from="170605264" to="43947369#1"/>
    <trip id="bus161" type="bus_bus" depart="70.55" from="43948501-AddedOffRampEdge" to="43947368"/>
    <trip id="bus162" type="bus_bus" depart="70.99" from="1120029181" to="43947365"/>
    <trip id="bus164" type="bus_bus" depart="71.87" from="43948501" to="43947368"/>
    <trip id="bus165" type="bus_bus" depart="72.31" from="43948501-AddedOffRampEdge" to="170601197"/>
    <trip id="bus168" type="bus_bus" depart="73.62" from="170605264" to="43947368"/>
    <trip id="bus170" type="bus_bus" depart="74.50" from="43948501" to="170601197"/>
    <trip id="bus172" type="bus_bus" depart="75.37" from="206489380" to="43947368"/>
    <trip id="bus173" type="bus_bus" depart="75.81" from="70707218" to="170601197"/>
    <trip id="bus174" type="bus_bus" depart="76.25" from="43948501" to="206489379"/>
    <trip id="bus177" type="bus_bus" depart="77.57" from="70707218" to="170601197"/>
    <trip id="bus178" type="bus_bus" depart="78.00" from="70707218" to="170601197"/>
    <trip id="bus179" type="bus_bus" depart="78.44" from="1122897134" to="206489379"/>
    <trip id="bus180" type="bus_bus" depart="78.88" from="43948501" to="206489379"/>
    <trip id="bus182" type="bus_bus" depart="79.76" from="277654571" to="43947365"/>
    <trip id="bus183" type="bus_bus" depart="80.20" from="170605264" to="43947365"/>
    <trip id="bus187" type="bus_bus" depart="81.95" from="277654571" to="1120029190"/>
    <trip id="bus188" type="bus_bus" depart="82.39" from="43948501" to="206489379"/>
    <trip id="bus190" type="bus_bus" depart="83.26" from="43948501" to="170601197"/>
    <trip id="bus194" type="bus_bus" depart="85.02" from="70707218" to="43947365"/>
    <trip id="bus195" type="bus_bus" depart="85.45" from="70707218" to="43947365"/>
    <trip id="bus198" type="bus_bus" depart="86.77" from="277654571" to="43947365"/>
    <trip id="bus199" type="bus_bus" depart="87.21" from="43948501" to="206489379"/>
    <trip id="bus201" type="bus_bus" depart="88.08" from="277654571" to="43947368"/>
    <trip id="bus202" type="bus_bus" depart="88.52" from="43948501" to="170601197"/>
    <trip id="bus206" type="bus_bus" depart="90.27" from="43948501" to="170601197"/>
    <trip id="bus210" type="bus_bus" depart="92.03" from="277654571" to="43947365"/>
    <trip id="bus211" type="bus_bus" depart="92.47" from="170605264" to="43947365"/>
    <trip id="bus213" type="bus_bus" depart="93.34" from="43948501" to="1118511056"/>
    <trip id="bus214" type="bus_bus" depart="93.78" from="43948501" to="43947368"/>
    <trip id="bus218" type="bus_bus" depart="95.53" from="170605264" to="43947368"/>
    <trip id="bus219" type="bus_bus" depart="95.97" from="277654571" to="43947368"/>
    <trip id="bus220" type="bus_bus" depart="96.41" from="43948501" to="660731151"/>
    <trip id="bus222" type="bus_bus" depart="97.29" from="70707218" to="43947365"/>
    <trip id="bus224" type="bus_bus" depart="98.16" from="70707218" to="42064105"/>
    <trip id="bus225" type="bus_bus" depart="98.60" from="70707218" to="43947365-AddedOnRampEdge"/>
    <trip id="bus227" type="bus_bus" depart="99.48" from="170605264" to="43947365"/>
    <trip id="bus233" type="bus_bus" depart="102.11" from="170605264" to="43947365"/>
    <trip id="bus234" type="bus_bus" depart="102.54" from="43948501" to="1120029189"/>
    <trip id="bus235" type="bus_bus" depart="102.98" from="277654571" to="41844004"/>
    <trip id="bus237" type="bus_bus" depart="103.86" from="277654571" to="43947368"/>
    <trip id="bus241" type="bus_bus" depart="105.61" from="277653336" to="43947368"/>
    <trip id="bus242" type="bus_bus" depart="106.05" from="70707218" to="43947386#1"/>
    <trip id="bus243" type="bus_bus" depart="106.49" from="277654571" to="43947365-AddedOnRampEdge"/>
    <trip id="bus245" type="bus_bus" depart="107.37" from="170605264" to="170601197"/>
    <trip id="bus247" type="bus_bus" depart="108.24" from="206489382" to="43947365"/>
    <trip id="bus249" type="bus_bus" depart="109.12" from="277654571" to="170601193"/>
    <trip id="bus252" type="bus_bus" depart="110.43" from="1120029181" to="43947365"/>
    <trip id="bus256" type="bus_bus" depart="112.19" from="43948501" to="206489379"/>
    <trip id="bus257" type="bus_bus" depart="112.62" from="43948501" to="43947368"/>
    <trip id="bus260" type="bus_bus" depart="113.94" from="70707218-AddedOffRampEdge" to="206489379"/>
    <trip id="bus261" type="bus_bus" depart="114.38" from="43948501" to="43947368"/>
    <trip id="bus262" type="bus_bus" depart="114.82" from="43948501" to="43947368"/>
    <trip id="bus263" type="bus_bus" depart="115.25" from="70707218" to="170601197"/>
    <trip id="bus265" type="bus_bus" depart="116.13" from="170601193" to="43947365"/>
    <trip id="bus267" type="bus_bus" depart="117.01" from="43948501" to="43947368"/>
    <trip id="bus268" type="bus_bus" depart="117.44" from="170605264" to="43947365"/>
    <trip id="bus273" type="bus_bus" depart="119.64" from="70707218" to="206489379"/>
    <trip id="bus274" type="bus_bus" depart="120.07" from="43948501" to="1120029190"/>
    <trip id="bus276" type="bus_bus" depart="120.95" from="1122897133" to="43947368"/>
    <trip id="bus277" type="bus_bus" depart="121.39" from="70707218" to="43947365"/>
    <trip id="bus279" type="bus_bus" depart="122.27" from="43948501" to="206489379"/>
    <trip id="bus280" type="bus_bus" depart="122.70" from="277654571" to="206489379"/>
    <trip id="bus281" type="bus_bus" depart="123.14" from="277654571" to="206489379"/>
    <trip id="bus284" type="bus_bus" depart="124.46" from="43947390#1" to="43947368"/>
    <trip id="bus285" type="bus_bus" depart="124.89" from="43948501" to="206489379"/>
    <trip id="bus287" type="bus_bus" depart="125.77" from="170605264" to="43947368"/>
    <trip id="bus289" type="bus_bus" depart="126.65" from="277654571" to="43947365"/>
    <trip id="bus290" type="bus_bus" depart="127.09" from="170605264" to="43947368"/>
    <trip id="bus292" type="bus_bus" depart="127.96" from="70707218" to="170601197"/>
    <trip id="bus293" type="bus_bus" depart="128.40" from="277654571" to="43947365"/>
    <trip id="bus295" type="bus_bus" depart="129.28" from="70707218" to="170601197"/>
    <trip id="bus296" type="bus_bus" depart="129.72" from="170605264" to="43947368"/>
    <trip id="bus297" type="bus_bus" depart="130.15" from="206489382-AddedOffRampEdge" to="43947368"/>
    <trip id="bus298" type="bus_bus" depart="130.59" from="43948501" to="170601197"/>
    <trip id="bus301" type="bus_bus" depart="131.91" from="277654571" to="43947368"/>
    <trip id="bus303" type="bus_bus" depart="132.78" from="277654571" to="43947368"/>
    <trip id="bus308" type="bus_bus" depart="134.97" from="43948501" to="206489379"/>
    <trip id="bus309" type="bus_bus" depart="135.41" from="43948501" to="170601197"/>
    <trip id="bus312" type="bus_bus" depart="136.73" from="41844004" to="43947368"/>
    <trip id="bus313" type="bus_bus" depart="137.16" from="170605264" to="170601197"/>
    <trip id="bus314" type="bus_bus" depart="137.60" from="277654571" to="43947365"/>
    <trip id="bus315" type="bus_bus" depart="138.04" from="70707218" to="406802122"/>
    <trip id="bus317" type="bus_bus" depart="138.92" from="170605264" to="170601197"/>
    <trip id="bus320" type="bus_bus" depart="140.23" from="70707218" to="42064105"/>
    <trip id="bus323" type="bus_bus" depart="141.55" from="70707218" to="43947365"/>
    <trip id="bus324" type="bus_bus" depart="141.99" from="277654571" to="206489379"/>
    <trip id="bus325" type="bus_bus" depart="142.42" from="170605264" to="1120029186"/>
    <trip id="bus326" type="bus_bus" depart="142.86" from="70707218" to="206489379-AddedOnRampEdge"/>
    <trip id="bus333" type="bus_bus" depart="145.93" from="43948501" to="170601197"/>
    <trip id="bus334" type="bus_bus" depart="146.37" from="277654571" to="206489379"/>
    <trip id="bus335" type="bus_bus" depart="146.81" from="277654571" to="43947368"/>
    <trip id="bus339" type="bus_bus" depart="148.56" from="170605264" to="170601197"/>
    <trip id="bus340" type="bus_bus" depart="149.00" from="43948501" to="170601197"/>
    <trip id="bus342" type="bus_bus" depart="149.87" from="1118511056" to="206489379"/>
    <trip id="bus343" type="bus_bus" depart="150.31" from="43947369#1" to="170601197"/>
    <trip id="bus344" type="bus_bus" depart="150.75" from="170605264" to="43947365"/>
    <trip id="bus345" type="bus_bus" depart="151.19" from="43948501" to="206489379"/>
    <trip id="bus346" type="bus_bus" depart="151.63" from="43948501" to="43947369#1"/>
    <trip id="bus348" type="bus_bus" depart="152.50" from="43948501" to="43947369#1-AddedOnRampEdge"/>
    <trip id="bus350" type="bus_bus" depart="153.38" from="43948501" to="43947368"/>
    <trip id="bus352" type="bus_bus" depart="154.26" from="170605264" to="170605269"/>
    <trip id="bus357" type="bus_bus" depart="156.45" from="277654571" to="1120029191"/>
    <trip id="bus361" type="bus_bus" depart="158.20" from="70707218" to="43947365"/>
    <trip id="bus362" type="bus_bus" depart="158.64" from="70707218" to="70707218-AddedOffRampEdge"/>
    <trip id="bus363" type="bus_bus" depart="159.08" from="43948501" to="170601197"/>
    <trip id="bus365" type="bus_bus" depart="159.95" from="277654571" to="43947365"/>
    <trip id="bus366" type="bus_bus" depart="160.39" from="70707218" to="170601197"/>
    <trip id="bus370" type="bus_bus" depart="162.14" from="43948501" to="43947368"/>
    <trip id="bus372" type="bus_bus" depart="163.02" from="170605264" to="43947382"/>
    <trip id="bus374" type="bus_bus" depart="163.90" from="277654571" to="206489379"/>
    <trip id="bus377" type="bus_bus" depart="165.21" from="70707218" to="43947365"/>
    <trip id="bus381" type="bus_bus" depart="166.96" from="43948501" to="170601197"/>
    <trip id="bus382" type="bus_bus" depart="167.40" from="42064105" to="43947369#1"/>
    <trip id="bus383" type="bus_bus" depart="167.84" from="277654571" to="43947365"/>
    <trip id="bus385" type="bus_bus" depart="168.72" from="43947369#1-AddedOnRampEdge" to="170601197"/>
    <trip id="bus389" type="bus_bus" depart="170.47" from="277654571" to="1139168722"/>
    <trip id="bus392" type="bus_bus" depart="171.78" from="170605264" to="43947368"/>
    <trip id="bus393" type="bus_bus" depart="172.22" from="70707218" to="170601197"/>
    <trip id="bus394" type="bus_bus" depart="172.66" from="42064105" to="206489379"/>
    <trip id="bus397" type="bus_bus" depart="173.98" from="170605264" to="43947368"/>
    <trip id="bus399" type="bus_bus" depart="174.85" from="277654571" to="43947368"/>
    <trip id="bus400" type="bus_bus" depart="175.29" from="170605264" to="170601197"/>
    <trip id="bus405" type="bus_bus" depart="177.48" from="277654571" to="206489379"/>
    <trip id="bus406" type="bus_bus" depart="177.92" from="170605264" to="43947365"/>
    <trip id="bus410" type="bus_bus" depart="179.67" from="43948501-AddedOffRampEdge" to="206489379"/>
    <trip id="bus411" type="bus_bus" depart="180.11" from="43948501" to="43947368"/>
    <trip id="bus414" type="bus_bus" depart="181.43" from="43947368-AddedOnRampEdge" to="43947368"/>
    <trip id="bus415" type="bus_bus" depart="181.86" from="70707218" to="206489379"/>
    <trip id="bus417" type="bus_bus" depart="182.74" from="43948501" to="206489379"/>
    <trip id="bus418" type="bus_bus" depart="183.18" from="43948501" to="170601197"/>
    <trip id="bus420" type="bus_bus" depart="184.06" from="206489382" to="43947365"/>
    <trip id="bus421" type="bus_bus" depart="184.49" from="43948501" to="43947368"/>
    <trip id="bus423" type="bus_bus" depart="185.37" from="277654571" to="206489379"/>
    <trip id="bus424" type="bus_bus" depart="185.81" from="43948501" to="43947368"/>
    <trip id="bus427" type="bus_bus" depart="187.12" from="70707218" to="70707218-AddedOffRampEdge"/>
    <trip id="bus428" type="bus_bus" depart="187.56" from="43948501" to="206489379"/>
    <trip id="bus430" type="bus_bus" depart="188.44" from="70707218" to="206489379"/>
    <trip id="bus431" type="bus_bus" depart="188.88" from="43948501" to="43947368"/>
    <trip id="bus437" type="bus_bus" depart="191.50" from="70707218" to="43947365"/>
    <trip id="bus438" type="bus_bus" depart="191.94" from="170605264" to="43947368-AddedOnRampEdge"/>
    <trip id="bus440" type="bus_bus" depart="192.82" from="170605264" to="170601197"/>
    <trip id="bus441" type="bus_bus" depart="193.26" from="1118511056" to="43947368"/>
    <trip id="bus442" type="bus_bus" depart="193.70" from="70707218" to="43947365"/>
    <trip id="bus444" type="bus_bus" depart="194.57" from="206489382-AddedOffRampEdge" to="43947365"/>
    <trip id="bus446" type="bus_bus" depart="195.45" from="170605264" to="43947368"/>
    <trip id="bus449" type="bus_bus" depart="196.76" from="42064232" to="43947365"/>
    <trip id="bus450" type="bus_bus" depart="197.20" from="70707218-AddedOffRampEdge" to="170601197"/>
    <trip id="bus451" type="bus_bus" depart="197.64" from="70707218" to="43947365"/>
    <trip id="bus452" type="bus_bus" depart="198.08" from="170605264" to="42064232"/>
    <trip id="bus454" type="bus_bus" depart="198.95" from="1120029186" to="43947365"/>
    <trip id="bus455" type="bus_bus" depart="199.39" from="277654571" to="43947368"/>
    <trip id="bus456" type="bus_bus" depart="199.83" from="170605264" to="43947368"/>
    <trip id="bus460" type="bus_bus" depart="201.58" from="43948501" to="43947368"/>
    <trip id="bus463" type="bus_bus" depart="202.90" from="277654571" to="43947365"/>
    <trip id="bus464" type="bus_bus" depart="203.34" from="43948501" to="1120029196"/>
    <trip id="bus465" type="bus_bus" depart="203.78" from="170605264" to="43947365-AddedOnRampEdge"/>
    <trip id="bus469" type="bus_bus" depart="205.53" from="70707218" to="170601197"/>
    <trip id="bus473" type="bus_bus" depart="207.28" from="70707218" to="170601197"/>
    <trip id="bus475" type="bus_bus" depart="208.16" from="43948501" to="43948501-AddedOffRampEdge"/>
    <trip id="bus477" type="bus_bus" depart="209.03" from="277654571" to="43947368"/>
    <trip id="bus479" type="bus_bus" depart="209.91" from="277654571" to="43947365"/>
    <trip id="bus481" type="bus_bus" depart="210.79" from="660731151" to="43947369#1-AddedOnRampEdge"/>
    <trip id="bus488" type="bus_bus" depart="213.85" from="170605264" to="43947382"/>
    <trip id="bus489" type="bus_bus" depart="214.29" from="170605269" to="206489380"/>
    <trip id="bus490" type="bus_bus" depart="214.73" from="1122897133" to="43947368"/>
    <trip id="bus493" type="bus_bus" depart="216.05" from="70707218" to="206489379"/>
    <trip id="bus494" type="bus_bus" depart="216.48" from="43948501" to="170601197"/>
    <trip id="bus496" type="bus_bus" depart="217.36" from="277654571" to="206489379"/>
    <trip id="bus498" type="bus_bus" depart="218.24" from="277654571" to="206489379"/>
    <trip id="bus504" type="bus_bus" depart="220.87" from="70707218" to="206489379"/>
    <trip id="bus507" type="bus_bus" depart="222.18" from="43948501" to="170601197"/>
    <trip id="bus509" type="bus_bus" depart="223.06" from="1120029190" to="43947368"/>
    <trip id="bus510" type="bus_bus" depart="223.50" from="170605264" to="170601197"/>
    <trip id="bus511" type="bus_bus" depart="223.93" from="70707218" to="206489379"/>
    <trip id="bus512" type="bus_bus" depart="224.37" from="170605264" to="43947368"/>
    <trip id="bus513" type="bus_bus" depart="224.81" from="1118511056" to="43947368"/>
    <trip id="bus515" type="bus_bus" depart="225.69" from="170605264" to="170601197"/>
    <trip id="bus517" type="bus_bus" depart="226.56" from="1118511056-AddedOffRampEdge" to="43947368"/>
    <trip id="bus519" type="bus_bus" depart="227.44" from="170605264" to="1120029186"/>
    <trip id="bus521" type="bus_bus" depart="228.32" from="43948501" to="206489379-AddedOnRampEdge"/>
    <trip id="bus524" type="bus_bus" depart="229.63" from="70707218" to="1120029183"/>
    <trip id="bus525" type="bus_bus" depart="230.07" from="43948501" to="43947368"/>
    <trip id="bus526" type="bus_bus" depart="230.51" from="277654571" to="206489379"/>
    <trip id="bus528" type="bus_bus" depart="231.38" from="277654571" to="206489379"/>
    <trip id="bus537" type="bus_bus" depart="235.33" from="43948501" to="43947368"/>
    <trip id="bus538" type="bus_bus" depart="235.77" from="43948501" to="43947368"/>
    <trip id="bus539" type="bus_bus" depart="236.20" from="43948501" to="170601197"/>
    <trip id="bus543" type="bus_bus" depart="237.96" from="277654571" to="43947365"/>
    <trip id="bus552" type="bus_bus" depart="241.90" from="43948501" to="43947368"/>
    <trip id="bus556" type="bus_bus" depart="243.65" from="43948501" to="170601197"/>
    <trip id="bus557" type="bus_bus" depart="244.09" from="1122897134" to="43947368"/>
    <trip id="bus558" type="bus_bus" depart="244.53" from="277654571" to="43947368"/>
    <trip id="bus564" type="bus_bus" depart="247.16" from="170605264" to="170601197"/>
    <trip id="bus570" type="bus_bus" depart="249.79" from="43948501" to="170601197"/>
    <trip id="bus571" type="bus_bus" depart="250.23" from="277654571" to="206489379"/>
    <trip id="bus572" type="bus_bus" depart="250.67" from="277654571" to="43947365"/>
    <trip id="bus575" type="bus_bus" depart="251.98" from="170605264" to="43947365"/>
    <trip id="bus576" type="bus_bus" depart="252.42" from="43948501" to="170601197"/>
    <trip id="bus583" type="bus_bus" depart="255.49" from="277654571" to="43947365"/>
    <trip id="bus585" type="bus_bus" depart="256.36" from="170605264" to="170601197"/>
    <trip id="bus591" type="bus_bus" depart="258.99" from="1120029190" to="43947368"/>
    <trip id="bus594" type="bus_bus" depart="260.31" from="43947365-AddedOnRampEdge" to="43947365"/>
    <trip id="bus595" type="bus_bus" depart="260.74" from="43948501" to="206489379"/>
    <trip id="bus597" type="bus_bus" depart="261.62" from="206489380" to="43947368"/>
    <trip id="bus598" type="bus_bus" depart="262.06" from="43947382" to="43947368"/>
    <trip id="bus600" type="bus_bus" depart="262.94" from="70707218" to="170601197"/>
    <trip id="bus604" type="bus_bus" depart="264.69" from="170605264" to="206489382-AddedOffRampEdge"/>
    <trip id="bus606" type="bus_bus" depart="265.57" from="70707218" to="206489379"/>
    <trip id="bus607" type="bus_bus" depart="266.00" from="43948501" to="43947368"/>
    <trip id="bus608" type="bus_bus" depart="266.44" from="43948501-AddedOffRampEdge" to="170601197"/>
    <trip id="bus609" type="bus_bus" depart="266.88" from="170605264" to="170601197"/>
    <trip id="bus611" type="bus_bus" depart="267.76" from="43948501" to="170601197"/>
    <trip id="bus613" type="bus_bus" depart="268.63" from="43948501" to="43947368"/>
    <trip id="bus615" type="bus_bus" depart="269.51" from="42064232" to="43947365"/>
    <trip id="bus619" type="bus_bus" depart="271.26" from="170605269" to="170601197"/>
    <trip id="bus623" type="bus_bus" depart="273.02" from="1120029190" to="43947368"/>
    <trip id="bus624" type="bus_bus" depart="273.45" from="70707218" to="43947365"/>
    <trip id="bus625" type="bus_bus" depart="273.89" from="277654571" to="206489379"/>
    <trip id="bus627" type="bus_bus" depart="274.77" from="70707218" to="206489379"/>
    <trip id="bus631" type="bus_bus" depart="276.52" from="1122897133" to="43947368"/>
    <trip id="bus632" type="bus_bus" depart="276.96" from="206489382-AddedOffRampEdge" to="43947365"/>
    <trip id="bus638" type="bus_bus" depart="279.59" from="206489382" to="43947365"/>
    <trip id="bus641" type="bus_bus" depart="280.90" from="43948501" to="170601197"/>
    <trip id="bus644" type="bus_bus" depart="282.22" from="206489382" to="43947365"/>
    <trip id="bus646" type="bus_bus" depart="283.09" from="70707218" to="43947365"/>
    <trip id="bus647" type="bus_bus" depart="283.53" from="277654571" to="43947365"/>
    <trip id="bus649" type="bus_bus" depart="284.41" from="277654571" to="43947368"/>
    <trip id="bus651" type="bus_bus" depart="285.29" from="70707218" to="43947365-AddedOnRampEdge"/>
    <trip id="bus653" type="bus_bus" depart="286.16" from="43948501" to="206489379"/>
    <trip id="bus654" type="bus_bus" depart="286.60" from="277654571" to="206489379"/>
    <trip id="bus655" type="bus_bus" depart="287.04" from="170605264" to="170601197"/>
    <trip id="bus657" type="bus_bus" depart="287.91" from="170605264" to="170601197"/>
    <trip id="bus658" type="bus_bus" depart="288.35" from="1120029190" to="43947368"/>
    <trip id="bus659" type="bus_bus" depart="288.79" from="1122897133" to="43947368"/>
    <trip id="bus665" type="bus_bus" depart="291.42" from="43948501-AddedOffRampEdge" to="170601197"/>
    <trip id="bus666" type="bus_bus" depart="291.86" from="277654571" to="206489379"/>
    <trip id="bus667" type="bus_bus" depart="292.30" from="43948501" to="170601197"/>
    <trip id="bus669" type="bus_bus" depart="293.17" from="43948501" to="206489379"/>
    <trip id="bus671" type="bus_bus" depart="294.05" from="43948501-AddedOffRampEdge" to="206489379"/>
    <trip id="bus672" type="bus_bus" depart="294.49" from="70707218" to="206489379"/>
    <trip id="bus677" type="bus_bus" depart="296.68" from="43948501" to="170601197"/>
    <trip id="bus678" type="bus_bus" depart="297.12" from="170605264" to="43947365"/>