<?xml version="1.0" encoding="UTF-8"?>

<!-- generated on 2024-12-04 17:53:29.456461 by main.py UNKNOWN
<configuration>
    <net-file value="/root/myvenv/nextpj/src/backend/data/scenario_1733334805/osm.net.xml.gz"/>
    <output-trip-file value="/root/myvenv/nextpj/src/backend/data/scenario_1733334805/osm.passenger.trips.xml"/>
    <route-file value="/root/myvenv/nextpj/src/backend/data/scenario_1733334805/osm.passenger.rou.xml"/>
    <prefix value="passenger"/>
    <vehicle-class value="passenger"/>
    <fringe-factor value="30.0"/>
    <validate value="True"/>
    <insertion-density value="100.0"/>
</configuration>
-->

<!-- generated on 2024-12-04 17:53:29 by Eclipse SUMO duarouter Version 1.21.0
<duarouterConfiguration xmlns:xsi="http://www.w3.org/2001/XMLSchema-instance" xsi:noNamespaceSchemaLocation="http://sumo.dlr.de/xsd/duarouterConfiguration.xsd">

    <input>
        <net-file value="/root/myvenv/nextpj/src/backend/data/scenario_1733334805/osm.net.xml.gz"/>
        <route-files value="/root/myvenv/nextpj/src/backend/data/scenario_1733334805/osm.passenger.trips.xml"/>
    </input>

    <output>
        <output-file value="/root/myvenv/nextpj/src/backend/data/scenario_1733334805/osm.passenger.rou.xml"/>
        <alternatives-output value="NUL"/>
    </output>

    <time>
        <begin value="0.0"/>
        <end value="3600.0"/>
    </time>

    <report>
        <no-warnings value="true"/>
        <ignore-errors value="true"/>
        <no-step-log value="true"/>
    </report>

</duarouterConfiguration>
-->

<routes xmlns:xsi="http://www.w3.org/2001/XMLSchema-instance" xsi:noNamespaceSchemaLocation="http://sumo.dlr.de/xsd/routes_file.xsd">
    <vType id="passenger_passenger" vClass="passenger"/>
    <vehicle id="passenger4" type="passenger_passenger" depart="1.39">
        <route edges="42064236 170605264 170605269 1120029182 1120029183"/>
    </vehicle>
    <vehicle id="passenger6" type="passenger_passenger" depart="2.08">
        <route edges="1120029183 43947369#1-AddedOnRampEdge 43947369#1 170601197"/>
    </vehicle>
    <vehicle id="passenger8" type="passenger_passenger" depart="2.78">
        <route edges="277654571 170601193 43947365-AddedOnRampEdge 43947365"/>
    </vehicle>
    <vehicle id="passenger10" type="passenger_passenger" depart="3.47">
        <route edges="70707218 70707218-AddedOffRampEdge 1120029181 1120029186 43947365-AddedOnRampEdge 43947365"/>
    </vehicle>
    <vehicle id="passenger12" type="passenger_passenger" depart="4.17">
        <route edges="70707218 70707218-AddedOffRampEdge 42064105 42064105-AddedOffRampEdge 43947386#1 206489379-AddedOnRampEdge 206489379 170605263"/>
    </vehicle>
    <vehicle id="passenger13" type="passenger_passenger" depart="4.51">
        <route edges="170605264 170605269 1120029182 1120029183 43947369#1-AddedOnRampEdge 43947369#1 170601197"/>
    </vehicle>
    <vehicle id="passenger14" type="passenger_passenger" depart="4.86">
        <route edges="70707218 70707218-AddedOffRampEdge 1120029181 1120029186 43947365-AddedOnRampEdge 43947365"/>
    </vehicle>
    <vehicle id="passenger15" type="passenger_passenger" depart="5.21">
        <route edges="70707218 70707218-AddedOffRampEdge 1120029181 1120029186 43947365-AddedOnRampEdge 43947365"/>
    </vehicle>
    <vehicle id="passenger17" type="passenger_passenger" depart="5.90">
        <route edges="42064236 170605264 170605269 206489382 206489382-AddedOffRampEdge 42064232"/>
    </vehicle>
    <vehicle id="passenger18" type="passenger_passenger" depart="6.25">
        <route edges="70707218 70707218-AddedOffRampEdge 1120029181 1120029186 43947365-AddedOnRampEdge 43947365"/>
    </vehicle>
    <vehicle id="passenger19" type="passenger_passenger" depart="6.60">
        <route edges="70707218 70707218-AddedOffRampEdge 1120029181 1120029186 43947365-AddedOnRampEdge 43947365"/>
    </vehicle>
    <vehicle id="passenger20" type="passenger_passenger" depart="6.95">
        <route edges="43948501 43948501-AddedOffRampEdge 1118511056 1118511056-AddedOffRampEdge 1122897133 1120029190"/>
    </vehicle>
    <vehicle id="passenger21" type="passenger_passenger" depart="7.29">
        <route edges="277654571 1122897134 1120029191 1139168722 206489379-AddedOnRampEdge 206489379 170605263"/>
    </vehicle>
    <vehicle id="passenger23" type="passenger_passenger" depart="7.99">
        <route edges="170605269 1120029182 1120029183 43947369#1-AddedOnRampEdge 43947369#1 170601197"/>
    </vehicle>
    <vehicle id="passenger24" type="passenger_passenger" depart="8.33">
        <route edges="43948501 43948501-AddedOffRampEdge 1118511056 1118511056-AddedOffRampEdge 1120029196 1139168722 206489379-AddedOnRampEdge 206489379 170605263"/>
    </vehicle>
    <vehicle id="passenger25" type="passenger_passenger" depart="8.68">
        <route edges="42064236 170605264 170605269 1120029182 1120029183 43947369#1-AddedOnRampEdge 43947369#1 170601197"/>
    </vehicle>
    <vehicle id="passenger26" type="passenger_passenger" depart="9.03">
        <route edges="277654571 1122897134 41844004 1120029190 1120029189 43947368-AddedOnRampEdge 43947368"/>
    </vehicle>
    <vehicle id="passenger28" type="passenger_passenger" depart="9.72">
        <route edges="277654571 170601193 43947365-AddedOnRampEdge 43947365"/>
    </vehicle>
    <vehicle id="passenger29" type="passenger_passenger" depart="10.07">
        <route edges="277654571 1122897134 1120029191 1139168722 206489379-AddedOnRampEdge 206489379 170605263"/>
    </vehicle>
    <vehicle id="passenger30" type="passenger_passenger" depart="10.42">
        <route edges="70707218 70707218-AddedOffRampEdge 1120029181 1120029186 43947365-AddedOnRampEdge 43947365"/>
    </vehicle>
    <vehicle id="passenger31" type="passenger_passenger" depart="10.77">
        <route edges="43947365-AddedOnRampEdge 43947365"/>
    </vehicle>
    <vehicle id="passenger35" type="passenger_passenger" depart="12.15">
        <route edges="277654571 1122897134 41844004 1120029190 1120029189 43947368-AddedOnRampEdge"/>
    </vehicle>
    <vehicle id="passenger36" type="passenger_passenger" depart="12.50">
        <route edges="70707218 70707218-AddedOffRampEdge 42064105 42064105-AddedOffRampEdge 43947386#1 206489379-AddedOnRampEdge 206489379 170605263"/>
    </vehicle>
    <vehicle id="passenger37" type="passenger_passenger" depart="12.85">
        <route edges="43948501 43948501-AddedOffRampEdge 1118511056 1118511056-AddedOffRampEdge 1120029196 1139168722 206489379-AddedOnRampEdge 206489379 170605263"/>
    </vehicle>
    <vehicle id="passenger38" type="passenger_passenger" depart="13.20">
        <route edges="70707218 70707218-AddedOffRampEdge 42064105 42064105-AddedOffRampEdge 43947386#1 206489379-AddedOnRampEdge 206489379 170605263"/>
    </vehicle>
    <vehicle id="passenger41" type="passenger_passenger" depart="14.24">
        <route edges="43947382 43947368-AddedOnRampEdge 43947368"/>
    </vehicle>
    <vehicle id="passenger42" type="passenger_passenger" depart="14.59">
        <route edges="42064236 170605264 170605269 1120029182 1120029183 43947369#1-AddedOnRampEdge 43947369#1 170601197"/>
    </vehicle>
    <vehicle id="passenger46" type="passenger_passenger" depart="15.97">
        <route edges="43948501-AddedOffRampEdge 1118511056 1118511056-AddedOffRampEdge 1120029196 1139168722 206489379-AddedOnRampEdge 206489379 170605263"/>
    </vehicle>
    <vehicle id="passenger47" type="passenger_passenger" depart="16.32">
        <route edges="1120029196 1139168722 206489379-AddedOnRampEdge 206489379 170605263"/>
    </vehicle>
    <vehicle id="passenger52" type="passenger_passenger" depart="18.06">
        <route edges="277654571 170601193 43947365-AddedOnRampEdge 43947365"/>
    </vehicle>
    <vehicle id="passenger53" type="passenger_passenger" depart="18.41">
        <route edges="206489379-AddedOnRampEdge 206489379 170605263"/>
    </vehicle>
    <vehicle id="passenger54" type="passenger_passenger" depart="18.75">
        <route edges="42064236 170605264 170605269 1120029182 1120029183 43947369#1-AddedOnRampEdge 43947369#1"/>
    </vehicle>
    <vehicle id="passenger55" type="passenger_passenger" depart="19.10">
        <route edges="70707218 70707218-AddedOffRampEdge 42064105 42064105-AddedOffRampEdge 406802122 1120029183 43947369#1-AddedOnRampEdge 43947369#1 170601197"/>
    </vehicle>
    <vehicle id="passenger56" type="passenger_passenger" depart="19.45">
        <route edges="42064236 170605264 170605269 1120029182 1120029183 43947369#1-AddedOnRampEdge 43947369#1 170601197"/>
    </vehicle>
    <vehicle id="passenger58" type="passenger_passenger" depart="20.14">
        <route edges="277654571 170601193 43947365-AddedOnRampEdge 43947365"/>
    </vehicle>
    <vehicle id="passenger59" type="passenger_passenger" depart="20.49">
        <route edges="43948501 43948501-AddedOffRampEdge 660731151 43947369#1-AddedOnRampEdge 43947369#1 170601197"/>
    </vehicle>
    <vehicle id="passenger62" type="passenger_passenger" depart="21.53">
        <route edges="1118511056 1118511056-AddedOffRampEdge 1120029196 1139168722 206489379-AddedOnRampEdge 206489379 170605263"/>
    </vehicle>
    <vehicle id="passenger68" type="passenger_passenger" depart="23.62">
        <route edges="1122897133 1120029190 1120029189 43947368-AddedOnRampEdge 43947368"/>
    </vehicle>
    <vehicle id="passenger69" type="passenger_passenger" depart="23.96">
        <route edges="43948501 43948501-AddedOffRampEdge 660731151 43947369#1-AddedOnRampEdge 43947369#1 170601197"/>
    </vehicle>
    <vehicle id="passenger70" type="passenger_passenger" depart="24.31">
        <route edges="42064236 170605264 170605269 206489382 206489382-AddedOffRampEdge 42064232"/>
    </vehicle>
    <vehicle id="passenger71" type="passenger_passenger" depart="24.66">
        <route edges="277654571 1122897134 41844004 1120029190 1120029189 43947368-AddedOnRampEdge 43947368"/>
    </vehicle>
    <vehicle id="passenger72" type="passenger_passenger" depart="25.00">
        <route edges="42064236 170605264 170605269 1120029182 1120029183 43947369#1-AddedOnRampEdge 43947369#1 170601197"/>
    </vehicle>
    <vehicle id="passenger73" type="passenger_passenger" depart="25.35">
        <route edges="42064236 170605264 170605269 206489382 206489382-AddedOffRampEdge 42064232 1120029186 43947365-AddedOnRampEdge 43947365"/>
    </vehicle>
    <vehicle id="passenger74" type="passenger_passenger" depart="25.70">
        <route edges="277654571 1122897134 1120029191 1139168722 206489379-AddedOnRampEdge 206489379 170605263"/>
    </vehicle>
    <vehicle id="passenger75" type="passenger_passenger" depart="26.05">
        <route edges="70707218-AddedOffRampEdge 1120029181 1120029186 43947365-AddedOnRampEdge 43947365"/>
    </vehicle>
    <vehicle id="passenger76" type="passenger_passenger" depart="26.39">
        <route edges="42064236 170605264 170605269 206489382 206489382-AddedOffRampEdge 43947390#1 277653336"/>
    </vehicle>
    <vehicle id="passenger81" type="passenger_passenger" depart="28.13">
        <route edges="277654571 1122897134 41844004 1120029190 1120029189 43947368-AddedOnRampEdge 43947368"/>
    </vehicle>
    <vehicle id="passenger83" type="passenger_passenger" depart="28.82">
        <route edges="277654571 170601193 43947365-AddedOnRampEdge 43947365"/>
    </vehicle>
    <vehicle id="passenger85" type="passenger_passenger" depart="29.52">
        <route edges="70707218 70707218-AddedOffRampEdge 1120029181 1120029186 43947365-AddedOnRampEdge 43947365"/>
    </vehicle>
    <vehicle id="passenger86" type="passenger_passenger" depart="29.87">
        <route edges="42064236 170605264 170605269 206489382 206489382-AddedOffRampEdge 43947390#1 277653336 206489380 43947382 43947368-AddedOnRampEdge 43947368"/>
    </vehicle>
    <vehicle id="passenger87" type="passenger_passenger" depart="30.21">
        <route edges="70707218 70707218-AddedOffRampEdge 42064105 42064105-AddedOffRampEdge 406802122 1120029183 43947369#1-AddedOnRampEdge 43947369#1 170601197"/>
    </vehicle>
    <vehicle id="passenger91" type="passenger_passenger" depart="31.60">
        <route edges="70707218 70707218-AddedOffRampEdge 42064105 42064105-AddedOffRampEdge 406802122 1120029183 43947369#1-AddedOnRampEdge 43947369#1 170601197"/>
    </vehicle>
    <vehicle id="passenger93" type="passenger_passenger" depart="32.30">
        <route edges="70707218 70707218-AddedOffRampEdge 42064105 42064105-AddedOffRampEdge 406802122 1120029183 43947369#1-AddedOnRampEdge 43947369#1 170601197"/>
    </vehicle>
    <vehicle id="passenger94" type="passenger_passenger" depart="32.64">
        <route edges="277654571 1122897134 1120029191 1139168722 206489379-AddedOnRampEdge 206489379 170605263"/>
    </vehicle>
    <vehicle id="passenger95" type="passenger_passenger" depart="32.99">
        <route edges="42064236 170605264 170605269 1120029182 1120029183 43947369#1-AddedOnRampEdge 43947369#1 170601197"/>
    </vehicle>
    <vehicle id="passenger96" type="passenger_passenger" depart="33.34">
        <route edges="277654571 1122897134 41844004 1120029190 1120029189 43947368-AddedOnRampEdge 43947368"/>
    </vehicle>
    <vehicle id="passenger97" type="passenger_passenger" depart="33.69">
        <route edges="42064236 170605264 170605269 206489382 206489382-AddedOffRampEdge 43947390#1 277653336 206489380 43947382 43947368-AddedOnRampEdge 43947368"/>
    </vehicle>
    <vehicle id="passenger101" type="passenger_passenger" depart="35.08">
        <route edges="70707218 70707218-AddedOffRampEdge 42064105 42064105-AddedOffRampEdge 406802122 1120029183 43947369#1-AddedOnRampEdge 43947369#1 170601197"/>
    </vehicle>
    <vehicle id="passenger102" type="passenger_passenger" depart="35.42">
        <route edges="42064236 170605264 170605269 1120029182 1120029183 43947369#1-AddedOnRampEdge 43947369#1 170601197"/>
    </vehicle>
    <vehicle id="passenger105" type="passenger_passenger" depart="36.46">
        <route edges="277654571 1122897134 41844004 1120029190 1120029189 43947368-AddedOnRampEdge 43947368"/>
    </vehicle>
    <vehicle id="passenger107" type="passenger_passenger" depart="37.16">
        <route edges="70707218 70707218-AddedOffRampEdge"/>
    </vehicle>
    <vehicle id="passenger108" type="passenger_passenger" depart="37.51">
        <route edges="43947365-AddedOnRampEdge 43947365"/>
    </vehicle>
    <vehicle id="passenger109" type="passenger_passenger" depart="37.85">
        <route edges="277654571 1122897134 1120029191 1139168722 206489379-AddedOnRampEdge 206489379 170605263"/>
    </vehicle>
    <vehicle id="passenger110" type="passenger_passenger" depart="38.20">
        <route edges="70707218 70707218-AddedOffRampEdge 1120029181 1120029186 43947365-AddedOnRampEdge 43947365"/>
    </vehicle>
    <vehicle id="passenger111" type="passenger_passenger" depart="38.55">
        <route edges="42064236 170605264 170605269 206489382 206489382-AddedOffRampEdge 42064232 1120029186 43947365-AddedOnRampEdge"/>
    </vehicle>
    <vehicle id="passenger113" type="passenger_passenger" depart="39.24">
        <route edges="42064236 170605264 170605269 206489382 206489382-AddedOffRampEdge 43947390#1 277653336 206489380 43947382 43947368-AddedOnRampEdge 43947368"/>
    </vehicle>
    <vehicle id="passenger118" type="passenger_passenger" depart="40.98">
        <route edges="70707218 70707218-AddedOffRampEdge 42064105 42064105-AddedOffRampEdge 406802122 1120029183 43947369#1-AddedOnRampEdge 43947369#1 170601197"/>
    </vehicle>
    <vehicle id="passenger120" type="passenger_passenger" depart="41.67">
        <route edges="42064236 170605264 170605269 206489382 206489382-AddedOffRampEdge 42064232 1120029186 43947365-AddedOnRampEdge 43947365"/>
    </vehicle>
    <vehicle id="passenger121" type="passenger_passenger" depart="42.02">
        <route edges="42064236 170605264 170605269 206489382 206489382-AddedOffRampEdge 43947390#1 277653336 206489380 43947382 43947368-AddedOnRampEdge 43947368"/>
    </vehicle>
    <vehicle id="passenger122" type="passenger_passenger" depart="42.37">
        <route edges="277654571 170601193 43947365-AddedOnRampEdge 43947365"/>
    </vehicle>
    <vehicle id="passenger123" type="passenger_passenger" depart="42.72">
        <route edges="277654571 1122897134 1120029191 1139168722 206489379-AddedOnRampEdge 206489379 170605263"/>
    </vehicle>
    <vehicle id="passenger124" type="passenger_passenger" depart="43.06">
        <route edges="43948501 43948501-AddedOffRampEdge 1118511056 1118511056-AddedOffRampEdge 1120029196 1139168722 206489379-AddedOnRampEdge 206489379 170605263"/>
    </vehicle>
    <vehicle id="passenger125" type="passenger_passenger" depart="43.41">
        <route edges="277654571 1122897134 41844004 1120029190 1120029189 43947368-AddedOnRampEdge 43947368"/>
    </vehicle>
    <vehicle id="passenger126" type="passenger_passenger" depart="43.76">
        <route edges="1122897134 1120029191 1139168722 206489379-AddedOnRampEdge 206489379 170605263"/>
    </vehicle>
    <vehicle id="passenger127" type="passenger_passenger" depart="44.10">
        <route edges="70707218-AddedOffRampEdge"/>
    </vehicle>
    <vehicle id="passenger129" type="passenger_passenger" depart="44.80">
        <route edges="277654571 1122897134 41844004 1120029190 1120029189 43947368-AddedOnRampEdge 43947368"/>
    </vehicle>
    <vehicle id="passenger131" type="passenger_passenger" depart="45.49">
        <route edges="42064236 170605264 170605269 1120029182 1120029183 43947369#1-AddedOnRampEdge 43947369#1 170601197"/>
    </vehicle>
    <vehicle id="passenger132" type="passenger_passenger" depart="45.84">
        <route edges="70707218 70707218-AddedOffRampEdge 1120029181 1120029186 43947365-AddedOnRampEdge 43947365"/>
    </vehicle>
    <vehicle id="passenger133" type="passenger_passenger" depart="46.19">
        <route edges="43948501 43948501-AddedOffRampEdge"/>
    </vehicle>
    <vehicle id="passenger134" type="passenger_passenger" depart="46.54">
        <route edges="43948501 43948501-AddedOffRampEdge 1118511056 1118511056-AddedOffRampEdge"/>
    </vehicle>
    <vehicle id="passenger135" type="passenger_passenger" depart="46.88">
        <route edges="70707218 70707218-AddedOffRampEdge 42064105 42064105-AddedOffRampEdge 43947386#1 206489379-AddedOnRampEdge 206489379 170605263"/>
    </vehicle>
    <vehicle id="passenger136" type="passenger_passenger" depart="47.23">
        <route edges="43948501 43948501-AddedOffRampEdge 1118511056 1118511056-AddedOffRampEdge 1122897133 1120029190 1120029189 43947368-AddedOnRampEdge 43947368"/>
    </vehicle>
    <vehicle id="passenger139" type="passenger_passenger" depart="48.27">
        <route edges="277654571 170601193 43947365-AddedOnRampEdge 43947365"/>
    </vehicle>
    <vehicle id="passenger140" type="passenger_passenger" depart="48.62">
        <route edges="43948501 43948501-AddedOffRampEdge 660731151 43947369#1-AddedOnRampEdge 43947369#1 170601197"/>
    </vehicle>
    <vehicle id="passenger141" type="passenger_passenger" depart="48.97">
        <route edges="43948501 43948501-AddedOffRampEdge 660731151 43947369#1-AddedOnRampEdge 43947369#1 170601197"/>
    </vehicle>
    <vehicle id="passenger142" type="passenger_passenger" depart="49.31">
        <route edges="42064236 170605264 170605269 206489382 206489382-AddedOffRampEdge 43947390#1 277653336 206489380 43947382 43947368-AddedOnRampEdge 43947368"/>
    </vehicle>
    <vehicle id="passenger143" type="passenger_passenger" depart="49.66">
        <route edges="70707218 70707218-AddedOffRampEdge 42064105 42064105-AddedOffRampEdge 406802122 1120029183 43947369#1-AddedOnRampEdge 43947369#1 170601197"/>
    </vehicle>
    <vehicle id="passenger144" type="passenger_passenger" depart="50.01">
        <route edges="42064236 170605264 170605269 1120029182 1120029183 43947369#1-AddedOnRampEdge 43947369#1 170601197"/>
    </vehicle>
    <vehicle id="passenger145" type="passenger_passenger" depart="50.36">
        <route edges="1118511056 1118511056-AddedOffRampEdge 1122897133 1120029190 1120029189 43947368-AddedOnRampEdge 43947368"/>
    </vehicle>
    <vehicle id="passenger146" type="passenger_passenger" depart="50.70">
        <route edges="43948501 43948501-AddedOffRampEdge 660731151 43947369#1-AddedOnRampEdge 43947369#1 170601197"/>
    </vehicle>
    <vehicle id="passenger149" type="passenger_passenger" depart="51.74">
        <route edges="1122897134 41844004 1120029190 1120029189 43947368-AddedOnRampEdge 43947368"/>
    </vehicle>
    <vehicle id="passenger150" type="passenger_passenger" depart="52.09">
        <route edges="70707218 70707218-AddedOffRampEdge 42064105 42064105-AddedOffRampEdge"/>
    </vehicle>
    <vehicle id="passenger151" type="passenger_passenger" depart="52.44">
        <route edges="70707218 70707218-AddedOffRampEdge 1120029181 1120029186 43947365-AddedOnRampEdge 43947365"/>
    </vehicle>
    <vehicle id="passenger153" type="passenger_passenger" depart="53.13">
        <route edges="277654571 1122897134 41844004 1120029190 1120029189 43947368-AddedOnRampEdge 43947368"/>
    </vehicle>
    <vehicle id="passenger154" type="passenger_passenger" depart="53.48">
        <route edges="43948501-AddedOffRampEdge 1118511056 1118511056-AddedOffRampEdge 1122897133 1120029190 1120029189 43947368-AddedOnRampEdge 43947368"/>
    </vehicle>
    <vehicle id="passenger155" type="passenger_passenger" depart="53.83">
        <route edges="70707218 70707218-AddedOffRampEdge 42064105 42064105-AddedOffRampEdge 406802122 1120029183 43947369#1-AddedOnRampEdge 43947369#1 170601197"/>
    </vehicle>
    <vehicle id="passenger157" type="passenger_passenger" depart="54.52">
        <route edges="43948501 43948501-AddedOffRampEdge 1118511056 1118511056-AddedOffRampEdge 1122897133 1120029190 1120029189 43947368-AddedOnRampEdge 43947368"/>
    </vehicle>
    <vehicle id="passenger158" type="passenger_passenger" depart="54.87">
        <route edges="42064236 170605264 170605269 206489382 206489382-AddedOffRampEdge 42064232 1120029186 43947365-AddedOnRampEdge 43947365"/>
    </vehicle>
    <vehicle id="passenger159" type="passenger_passenger" depart="55.22">
        <route edges="277654571 1122897134 41844004 1120029190 1120029189 43947368-AddedOnRampEdge 43947368"/>
    </vehicle>
    <vehicle id="passenger165" type="passenger_passenger" depart="57.30">
        <route edges="70707218 70707218-AddedOffRampEdge 42064105 42064105-AddedOffRampEdge 406802122 1120029183 43947369#1-AddedOnRampEdge 43947369#1 170601197"/>
    </vehicle>
    <vehicle id="passenger166" type="passenger_passenger" depart="57.65">
        <route edges="43948501 43948501-AddedOffRampEdge 660731151 43947369#1-AddedOnRampEdge 43947369#1 170601197"/>
    </vehicle>
    <vehicle id="passenger168" type="passenger_passenger" depart="58.34">
        <route edges="277654571 1122897134 41844004 1120029190 1120029189 43947368-AddedOnRampEdge 43947368"/>
    </vehicle>
    <vehicle id="passenger170" type="passenger_passenger" depart="59.04">
        <route edges="43948501-AddedOffRampEdge 660731151 43947369#1-AddedOnRampEdge 43947369#1 170601197"/>
    </vehicle>
    <vehicle id="passenger171" type="passenger_passenger" depart="59.38">
        <route edges="1120029182 1120029183 43947369#1-AddedOnRampEdge 43947369#1 170601197"/>
    </vehicle>
    <vehicle id="passenger172" type="passenger_passenger" depart="59.73">
        <route edges="277654571 1122897134 41844004 1120029190 1120029189 43947368-AddedOnRampEdge 43947368"/>
    </vehicle>
    <vehicle id="passenger173" type="passenger_passenger" depart="60.08">
        <route edges="70707218 70707218-AddedOffRampEdge 42064105 42064105-AddedOffRampEdge 406802122 1120029183 43947369#1-AddedOnRampEdge 43947369#1 170601197"/>
    </vehicle>
    <vehicle id="passenger174" type="passenger_passenger" depart="60.43">
        <route edges="43948501 43948501-AddedOffRampEdge 1118511056 1118511056-AddedOffRampEdge 1120029196 1139168722 206489379-AddedOnRampEdge 206489379 170605263"/>
    </vehicle>
    <vehicle id="passenger175" type="passenger_passenger" depart="60.77">
        <route edges="70707218 70707218-AddedOffRampEdge 42064105"/>
    </vehicle>
    <vehicle id="passenger176" type="passenger_passenger" depart="61.12">
        <route edges="70707218 70707218-AddedOffRampEdge 42064105 42064105-AddedOffRampEdge 406802122 1120029183 43947369#1-AddedOnRampEdge 43947369#1 170601197"/>
    </vehicle>
    <vehicle id="passenger177" type="passenger_passenger" depart="61.47">
        <route edges="70707218 70707218-AddedOffRampEdge 42064105 42064105-AddedOffRampEdge 406802122 1120029183 43947369#1-AddedOnRampEdge 43947369#1 170601197"/>
    </vehicle>
    <vehicle id="passenger178" type="passenger_passenger" depart="61.82">
        <route edges="70707218 70707218-AddedOffRampEdge 42064105 42064105-AddedOffRampEdge 406802122 1120029183 43947369#1-AddedOnRampEdge 43947369#1 170601197"/>
    </vehicle>
    <vehicle id="passenger179" type="passenger_passenger" depart="62.16">
        <route edges="206489379-AddedOnRampEdge 206489379 170605263"/>
    </vehicle>
    <vehicle id="passenger180" type="passenger_passenger" depart="62.51">
        <route edges="43948501 43948501-AddedOffRampEdge 1118511056 1118511056-AddedOffRampEdge 1120029196 1139168722 206489379-AddedOnRampEdge 206489379 170605263"/>
    </vehicle>
    <vehicle id="passenger182" type="passenger_passenger" depart="63.21">
        <route edges="42064236 170605264 170605269 206489382 206489382-AddedOffRampEdge 42064232 1120029186 43947365-AddedOnRampEdge 43947365"/>
    </vehicle>
    <vehicle id="passenger183" type="passenger_passenger" depart="63.55">
        <route edges="277654571 170601193 43947365-AddedOnRampEdge 43947365"/>
    </vehicle>
    <vehicle id="passenger184" type="passenger_passenger" depart="63.90">
        <route edges="1118511056 1118511056-AddedOffRampEdge 1122897133 1120029190 1120029189 43947368-AddedOnRampEdge 43947368"/>
    </vehicle>
    <vehicle id="passenger185" type="passenger_passenger" depart="64.25">
        <route edges="42064236 170605264 170605269 206489382 206489382-AddedOffRampEdge 42064232 1120029186 43947365-AddedOnRampEdge 43947365"/>
    </vehicle>
    <vehicle id="passenger188" type="passenger_passenger" depart="65.29">
        <route edges="43948501 43948501-AddedOffRampEdge 1118511056 1118511056-AddedOffRampEdge 1120029196 1139168722 206489379-AddedOnRampEdge 206489379 170605263"/>
    </vehicle>
    <vehicle id="passenger189" type="passenger_passenger" depart="65.64">
        <route edges="277654571 1122897134 41844004 1120029190 1120029189 43947368-AddedOnRampEdge 43947368"/>
    </vehicle>
    <vehicle id="passenger190" type="passenger_passenger" depart="65.98">
        <route edges="43948501 43948501-AddedOffRampEdge 1118511056 1118511056-AddedOffRampEdge 1120029196 1139168722 206489379-AddedOnRampEdge 206489379 170605263"/>
    </vehicle>
    <vehicle id="passenger191" type="passenger_passenger" depart="66.33">
        <route edges="277654571 1122897134 1120029191 1139168722 206489379-AddedOnRampEdge 206489379 170605263"/>
    </vehicle>
    <vehicle id="passenger194" type="passenger_passenger" depart="67.37">
        <route edges="70707218 70707218-AddedOffRampEdge 1120029181 1120029186 43947365-AddedOnRampEdge 43947365"/>
    </vehicle>
    <vehicle id="passenger195" type="passenger_passenger" depart="67.72">
        <route edges="70707218 70707218-AddedOffRampEdge 1120029181 1120029186 43947365-AddedOnRampEdge 43947365"/>
    </vehicle>
    <vehicle id="passenger197" type="passenger_passenger" depart="68.41">
        <route edges="1118511056 1118511056-AddedOffRampEdge 1120029196 1139168722 206489379-AddedOnRampEdge 206489379 170605263"/>
    </vehicle>
    <vehicle id="passenger198" type="passenger_passenger" depart="68.76">
        <route edges="42064236 170605264 170605269 206489382 206489382-AddedOffRampEdge 42064232 1120029186 43947365-AddedOnRampEdge 43947365"/>
    </vehicle>
    <vehicle id="passenger199" type="passenger_passenger" depart="69.11">
        <route edges="43948501 43948501-AddedOffRampEdge 1118511056 1118511056-AddedOffRampEdge 1120029196 1139168722 206489379-AddedOnRampEdge 206489379 170605263"/>
    </vehicle>
    <vehicle id="passenger200" type="passenger_passenger" depart="69.46">
        <route edges="42064236 170605264 170605269 1120029182 1120029183 43947369#1-AddedOnRampEdge 43947369#1 170601197"/>
    </vehicle>
    <vehicle id="passenger201" type="passenger_passenger" depart="69.80">
        <route edges="42064236 170605264 170605269 206489382 206489382-AddedOffRampEdge 43947390#1 277653336 206489380 43947382 43947368-AddedOnRampEdge 43947368"/>
    </vehicle>
    <vehicle id="passenger202" type="passenger_passenger" depart="70.15">
        <route edges="43948501-AddedOffRampEdge 660731151 43947369#1-AddedOnRampEdge 43947369#1 170601197"/>
    </vehicle>
    <vehicle id="passenger204" type="passenger_passenger" depart="70.85">
        <route edges="43948501 43948501-AddedOffRampEdge 1118511056 1118511056-AddedOffRampEdge 1120029196 1139168722 206489379-AddedOnRampEdge 206489379 170605263"/>
    </vehicle>
    <vehicle id="passenger205" type="passenger_passenger" depart="71.19">
        <route edges="70707218 70707218-AddedOffRampEdge 1120029181 1120029186 43947365-AddedOnRampEdge"/>
    </vehicle>
    <vehicle id="passenger206" type="passenger_passenger" depart="71.54">
        <route edges="43948501 43948501-AddedOffRampEdge 660731151 43947369#1-AddedOnRampEdge 43947369#1 170601197"/>
    </vehicle>
    <vehicle id="passenger210" type="passenger_passenger" depart="72.93">
        <route edges="42064236 170605264 170605269 206489382 206489382-AddedOffRampEdge 42064232 1120029186 43947365-AddedOnRampEdge 43947365"/>
    </vehicle>
    <vehicle id="passenger211" type="passenger_passenger" depart="73.28">