<?xml version="1.0" encoding="UTF-8"?>

<!-- generated on 2024-12-04 17:53:30.202398 by main.py UNKNOWN
<configuration>
    <net-file value="/root/myvenv/nextpj/src/backend/data/scenario_1733334805/osm.net.xml.gz"/>
    <output-trip-file value="/root/myvenv/nextpj/src/backend/data/scenario_1733334805/osm.truck.trips.xml"/>
    <route-file value="/root/myvenv/nextpj/src/backend/data/scenario_1733334805/osm.truck.rou.xml"/>
    <prefix value="truck"/>
    <vehicle-class value="truck"/>
    <fringe-factor value="20.0"/>
    <validate value="True"/>
    <insertion-density value="80.0"/>
</configuration>
-->

<!-- generated on 2024-12-04 17:53:30 by Eclipse SUMO duarouter Version 1.21.0
<duarouterConfiguration xmlns:xsi="http://www.w3.org/2001/XMLSchema-instance" xsi:noNamespaceSchemaLocation="http://sumo.dlr.de/xsd/duarouterConfiguration.xsd">

    <input>
        <net-file value="/root/myvenv/nextpj/src/backend/data/scenario_1733334805/osm.net.xml.gz"/>
        <route-files value="/root/myvenv/nextpj/src/backend/data/scenario_1733334805/osm.truck.trips.xml"/>
    </input>

    <output>
        <output-file value="/root/myvenv/nextpj/src/backend/data/scenario_1733334805/osm.truck.trips.xml.tmp"/>
        <alternatives-output value="NUL"/>
        <write-trips value="true"/>
    </output>

    <time>
        <begin value="0.0"/>
        <end value="3600.0"/>
    </time>

    <report>
        <no-warnings value="true"/>
        <ignore-errors value="true"/>
        <no-step-log value="true"/>
    </report>

</duarouterConfiguration>
-->

<routes xmlns:xsi="http://www.w3.org/2001/XMLSchema-instance" xsi:noNamespaceSchemaLocation="http://sumo.dlr.de/xsd/routes_file.xsd">
    <vType id="truck_truck" vClass="truck"/>
    <trip id="truck4" type="truck_truck" depart="1.74" from="42064236" to="1120029182"/>
    <trip id="truck6" type="truck_truck" depart="2.60" from="1120029182" to="170601197"/>
    <trip id="truck8" type="truck_truck" depart="3.47" from="277654571" to="43947365"/>
    <trip id="truck9" type="truck_truck" depart="3.91" from="43948501-AddedOffRampEdge" to="1118511056"/>
    <trip id="truck12" type="truck_truck" depart="5.21" from="70707218" to="170605263"/>
    <trip id="truck14" type="truck_truck" depart="6.08" from="70707218" to="43947365"/>
    <trip id="truck16" type="truck_truck" depart="6.95" from="42064236" to="43947390#1"/>
    <trip id="truck17" type="truck_truck" depart="7.38" from="42064105" to="42064105"/>
    <trip id="truck18" type="truck_truck" depart="7.81" from="70707218" to="43947365"/>
    <trip id="truck19" type="truck_truck" depart="8.25" from="70707218" to="43947365"/>
    <trip id="truck24" type="truck_truck" depart="10.42" from="43948501" to="170605263"/>
    <trip id="truck28" type="truck_truck" depart="12.15" from="206489382-AddedOffRampEdge" to="43947365"/>
    <trip id="truck30" type="truck_truck" depart="13.02" from="70707218" to="43947365"/>
    <trip id="truck31" type="truck_truck" depart="13.46" from="42064236" to="43947365"/>
    <trip id="truck36" type="truck_truck" depart="15.63" from="70707218" to="170605263"/>
    <trip id="truck37" type="truck_truck" depart="16.06" from="43948501" to="170605263"/>
    <trip id="truck38" type="truck_truck" depart="16.50" from="70707218" to="170605263"/>
    <trip id="truck40" type="truck_truck" depart="17.36" from="42064236" to="170601197"/>
    <trip id="truck41" type="truck_truck" depart="17.80" from="43947368-AddedOnRampEdge" to="43947368"/>
    <trip id="truck46" type="truck_truck" depart="19.97" from="43948501" to="170605263"/>
    <trip id="truck52" type="truck_truck" depart="22.57" from="277654571" to="43947365"/>
    <trip id="truck54" type="truck_truck" depart="23.44" from="42064236" to="43947382"/>
    <trip id="truck55" type="truck_truck" depart="23.88" from="70707218" to="170601197"/>
    <trip id="truck56" type="truck_truck" depart="24.31" from="42064236" to="170601197"/>
    <trip id="truck58" type="truck_truck" depart="25.18" from="277654571" to="43947365"/>
    <trip id="truck62" type="truck_truck" depart="26.91" from="1118511056" to="170605263"/>
    <trip id="truck65" type="truck_truck" depart="28.22" from="277654571" to="1120029189"/>
    <trip id="truck66" type="truck_truck" depart="28.65" from="70707218" to="43947369#1-AddedOnRampEdge"/>
    <trip id="truck69" type="truck_truck" depart="29.95" from="43948501" to="170601197"/>
    <trip id="truck71" type="truck_truck" depart="30.82" from="277654571" to="43947368"/>
    <trip id="truck72" type="truck_truck" depart="31.26" from="42064236" to="170601197"/>
    <trip id="truck73" type="truck_truck" depart="31.69" from="42064236" to="43947365"/>
    <trip id="truck74" type="truck_truck" depart="32.12" from="277654571" to="170605263"/>
    <trip id="truck75" type="truck_truck" depart="32.56" from="70707218-AddedOffRampEdge" to="43947365"/>
    <trip id="truck76" type="truck_truck" depart="32.99" from="42064236" to="206489382-AddedOffRampEdge"/>
    <trip id="truck77" type="truck_truck" depart="33.43" from="170605264" to="170601197"/>
    <trip id="truck78" type="truck_truck" depart="33.86" from="277654571" to="43947365"/>
    <trip id="truck81" type="truck_truck" depart="35.16" from="277654571" to="43947368"/>
    <trip id="truck83" type="truck_truck" depart="36.03" from="277654571" to="43947365"/>
    <trip id="truck86" type="truck_truck" depart="37.33" from="42064236" to="43947368"/>
    <trip id="truck87" type="truck_truck" depart="37.77" from="43948501-AddedOffRampEdge" to="170601197"/>
    <trip id="truck88" type="truck_truck" depart="38.20" from="1122897134" to="170605263"/>
    <trip id="truck89" type="truck_truck" depart="38.63" from="42064236" to="170605264"/>
    <trip id="truck93" type="truck_truck" depart="40.37" from="70707218" to="170601197"/>
    <trip id="truck94" type="truck_truck" depart="40.81" from="277654571" to="170605263"/>
    <trip id="truck95" type="truck_truck" depart="41.24" from="42064236" to="170601197"/>
    <trip id="truck96" type="truck_truck" depart="41.67" from="277654571" to="43947368-AddedOnRampEdge"/>
    <trip id="truck97" type="truck_truck" depart="42.11" from="42064236" to="43947368"/>
    <trip id="truck98" type="truck_truck" depart="42.54" from="42064236" to="1120029186"/>
    <trip id="truck101" type="truck_truck" depart="43.84" from="70707218" to="170601197"/>
    <trip id="truck102" type="truck_truck" depart="44.28" from="42064236" to="170601197"/>
    <trip id="truck105" type="truck_truck" depart="45.58" from="277654571" to="43947368"/>
    <trip id="truck107" type="truck_truck" depart="46.45" from="70707218" to="70707218-AddedOffRampEdge"/>
    <trip id="truck108" type="truck_truck" depart="46.88" from="42064236" to="43947365"/>
    <trip id="truck110" type="truck_truck" depart="47.75" from="70707218" to="43947365"/>
    <trip id="truck111" type="truck_truck" depart="48.19" from="42064236" to="43947365-AddedOnRampEdge"/>
    <trip id="truck113" type="truck_truck" depart="49.05" from="42064236" to="43947368"/>
    <trip id="truck118" type="truck_truck" depart="51.22" from="70707218" to="170601197"/>
    <trip id="truck120" type="truck_truck" depart="52.09" from="42064236" to="43947365"/>
    <trip id="truck121" type="truck_truck" depart="52.53" from="42064236" to="43947369#1"/>
    <trip id="truck122" type="truck_truck" depart="52.96" from="277654571" to="43947365"/>
    <trip id="truck123" type="truck_truck" depart="53.39" from="277654571" to="170605263"/>
    <trip id="truck124" type="truck_truck" depart="53.83" from="43948501" to="170605263"/>
    <trip id="truck125" type="truck_truck" depart="54.26" from="277654571" to="43947365-AddedOnRampEdge"/>
    <trip id="truck126" type="truck_truck" depart="54.70" from="1120029191" to="170605263"/>
    <trip id="truck127" type="truck_truck" depart="55.13" from="70707218-AddedOffRampEdge" to="70707218-AddedOffRampEdge"/>
    <trip id="truck132" type="truck_truck" depart="57.30" from="70707218" to="43947365"/>
    <trip id="truck134" type="truck_truck" depart="58.17" from="43948501" to="1118511056"/>
    <trip id="truck136" type="truck_truck" depart="59.04" from="43948501" to="43947369#1"/>
    <trip id="truck139" type="truck_truck" depart="60.34" from="277654571" to="43947365"/>
    <trip id="truck140" type="truck_truck" depart="60.77" from="43948501" to="170601197"/>
    <trip id="truck141" type="truck_truck" depart="61.21" from="43948501" to="170601197"/>
    <trip id="truck142" type="truck_truck" depart="61.64" from="42064236" to="43947368"/>
    <trip id="truck144" type="truck_truck" depart="62.51" from="42064236" to="170601197"/>
    <trip id="truck145" type="truck_truck" depart="62.94" from="1118511056" to="43947368"/>
    <trip id="truck146" type="truck_truck" depart="63.38" from="43948501" to="170601197"/>
    <trip id="truck151" type="truck_truck" depart="65.55" from="70707218" to="43947365"/>
    <trip id="truck153" type="truck_truck" depart="66.42" from="277654571" to="43947368"/>
    <trip id="truck154" type="truck_truck" depart="66.85" from="43948501" to="43947368"/>
    <trip id="truck155" type="truck_truck" depart="67.29" from="70707218" to="170601197"/>
    <trip id="truck156" type="truck_truck" depart="67.72" from="277654571" to="1139168722"/>
    <trip id="truck157" type="truck_truck" depart="68.15" from="43948501" to="43947368"/>
    <trip id="truck158" type="truck_truck" depart="68.59" from="42064236" to="43947365"/>
    <trip id="truck159" type="truck_truck" depart="69.02" from="206489380" to="43947368-AddedOnRampEdge"/>
    <trip id="truck161" type="truck_truck" depart="69.89" from="43948501-AddedOffRampEdge" to="43947368"/>
    <trip id="truck162" type="truck_truck" depart="70.32" from="1120029181" to="43947365"/>
    <trip id="truck163" type="truck_truck" depart="70.76" from="277654571" to="43947368-AddedOnRampEdge"/>
    <trip id="truck164" type="truck_truck" depart="71.19" from="43948501" to="43947368"/>
    <trip id="truck165" type="truck_truck" depart="71.63" from="43948501-AddedOffRampEdge" to="170601197"/>
    <trip id="truck166" type="truck_truck" depart="72.06" from="43948501" to="1139168722"/>
    <trip id="truck168" type="truck_truck" depart="72.93" from="277654571" to="43947368"/>
    <trip id="truck170" type="truck_truck" depart="73.80" from="43948501" to="170601197"/>
    <trip id="truck172" type="truck_truck" depart="74.67" from="277654571" to="43947368"/>
    <trip id="truck173" type="truck_truck" depart="75.10" from="70707218" to="170601197"/>
    <trip id="truck174" type="truck_truck" depart="75.53" from="43948501" to="170605263"/>
    <trip id="truck175" type="truck_truck" depart="75.97" from="70707218" to="406802122"/>
    <trip id="truck177" type="truck_truck" depart="76.84" from="70707218" to="170601197"/>
    <trip id="truck178" type="truck_truck" depart="77.27" from="70707218" to="170601197"/>
    <trip id="truck179" type="truck_truck" depart="77.70" from="1139168722" to="170605263"/>
    <trip id="truck180" type="truck_truck" depart="78.14" from="43948501" to="170605263"/>
    <trip id="truck183" type="truck_truck" depart="79.44" from="277654571" to="43947365"/>
    <trip id="truck184" type="truck_truck" depart="79.87" from="1118511056" to="43947368-AddedOnRampEdge"/>
    <trip id="truck185" type="truck_truck" depart="80.31" from="42064236" to="43947365"/>
    <trip id="truck188" type="truck_truck" depart="81.61" from="43948501" to="170605263"/>
    <trip id="truck189" type="truck_truck" depart="82.05" from="277654571" to="43947368"/>
    <trip id="truck190" type="truck_truck" depart="82.48" from="43948501" to="170605263"/>
    <trip id="truck191" type="truck_truck" depart="82.91" from="277654571" to="170605263"/>
    <trip id="truck194" type="truck_truck" depart="84.22" from="70707218" to="43947365"/>
    <trip id="truck195" type="truck_truck" depart="84.65" from="70707218" to="43947365"/>
    <trip id="truck198" type="truck_truck" depart="85.95" from="42064236" to="43947365"/>
    <trip id="truck200" type="truck_truck" depart="86.82" from="42064236" to="170601197"/>
    <trip id="truck201" type="truck_truck" depart="87.25" from="42064236" to="43947368"/>
    <trip id="truck202" type="truck_truck" depart="87.69" from="43948501" to="170601197"/>
    <trip id="truck204" type="truck_truck" depart="88.56" from="43948501" to="170605263"/>
    <trip id="truck206" type="truck_truck" depart="89.42" from="43948501" to="170601197"/>
    <trip id="truck210" type="truck_truck" depart="91.16" from="42064236" to="43947365"/>
    <trip id="truck211" type="truck_truck" depart="91.60" from="277654571" to="43947365"/>
    <trip id="truck212" type="truck_truck" depart="92.03" from="42064236" to="170601197"/>
    <trip id="truck213" type="truck_truck" depart="92.46" from="43948501" to="1118511056"/>
    <trip id="truck214" type="truck_truck" depart="92.90" from="43948501" to="43947368"/>
    <trip id="truck215" type="truck_truck" depart="93.33" from="1139168722" to="170605263"/>
    <trip id="truck217" type="truck_truck" depart="94.20" from="42064236" to="1120029186"/>
    <trip id="truck218" type="truck_truck" depart="94.63" from="277654571" to="43947368"/>
    <trip id="truck219" type="truck_truck" depart="95.07" from="42064236" to="43947368"/>
    <trip id="truck220" type="truck_truck" depart="95.50" from="43948501" to="660731151"/>
    <trip id="truck222" type="truck_truck" depart="96.37" from="70707218" to="43947365"/>
    <trip id="truck224" type="truck_truck" depart="97.24" from="70707218" to="42064105"/>
    <trip id="truck225" type="truck_truck" depart="97.67" from="70707218" to="43947365-AddedOnRampEdge"/>
    <trip id="truck226" type="truck_truck" depart="98.11" from="42064236" to="170601197"/>
    <trip id="truck227" type="truck_truck" depart="98.54" from="277654571" to="43947365"/>
    <trip id="truck231" type="truck_truck" depart="100.28" from="277654571" to="170605263"/>
    <trip id="truck232" type="truck_truck" depart="100.71" from="42064236" to="170601197"/>
    <trip id="truck233" type="truck_truck" depart="101.15" from="277654571" to="43947365"/>
    <trip id="truck234" type="truck_truck" depart="101.58" from="43948501" to="1120029190"/>
    <trip id="truck236" type="truck_truck" depart="102.45" from="42064236" to="170601197"/>
    <trip id="truck237" type="truck_truck" depart="102.88" from="42064236" to="43947368"/>
    <trip id="truck241" type="truck_truck" depart="104.62" from="277654571" to="43947368"/>
    <trip id="truck243" type="truck_truck" depart="105.49" from="42064236" to="43947365-AddedOnRampEdge"/>
    <trip id="truck244" type="truck_truck" depart="105.92" from="42064236" to="43947365"/>
    <trip id="truck246" type="truck_truck" depart="106.79" from="42064236" to="1120029182"/>
    <trip id="truck247" type="truck_truck" depart="107.22" from="277654571" to="43947365"/>
    <trip id="truck248" type="truck_truck" depart="107.66" from="42064236" to="170601197"/>
    <trip id="truck249" type="truck_truck" depart="108.09" from="42064236" to="170601197"/>
    <trip id="truck251" type="truck_truck" depart="108.96" from="42064232" to="42064232"/>
    <trip id="truck255" type="truck_truck" depart="110.70" from="277654571" to="170605263"/>
    <trip id="truck256" type="truck_truck" depart="111.13" from="43948501" to="170605263"/>
    <trip id="truck257" type="truck_truck" depart="111.56" from="43948501" to="43947368"/>
    <trip id="truck260" type="truck_truck" depart="112.87" from="70707218-AddedOffRampEdge" to="170605263"/>
    <trip id="truck261" type="truck_truck" depart="113.30" from="43948501" to="43947368"/>
    <trip id="truck262" type="truck_truck" depart="113.73" from="43948501" to="43947368"/>
    <trip id="truck263" type="truck_truck" depart="114.17" from="70707218" to="170601197"/>
    <trip id="truck265" type="truck_truck" depart="115.04" from="170605264" to="43947365"/>
    <trip id="truck266" type="truck_truck" depart="115.47" from="42064236" to="170601197"/>
    <trip id="truck267" type="truck_truck" depart="115.90" from="43948501" to="43947368"/>
    <trip id="truck268" type="truck_truck" depart="116.34" from="206489382" to="43947365"/>
    <trip id="truck272" type="truck_truck" depart="118.08" from="277654571" to="43947365"/>
    <trip id="truck273" type="truck_truck" depart="118.51" from="70707218" to="170605263"/>
    <trip id="truck276" type="truck_truck" depart="119.81" from="1122897134" to="43947368"/>
    <trip id="truck277" type="truck_truck" depart="120.25" from="70707218" to="43947365"/>
    <trip id="truck279" type="truck_truck" depart="121.11" from="43948501" to="170605263"/>
    <trip id="truck284" type="truck_truck" depart="123.28" from="43948501" to="43947368"/>
    <trip id="truck285" type="truck_truck" depart="123.72" from="43948501" to="170605263"/>
    <trip id="truck287" type="truck_truck" depart="124.59" from="277654571" to="43947368"/>
    <trip id="truck289" type="truck_truck" depart="125.46" from="42064236" to="43947365"/>
    <trip id="truck290" type="truck_truck" depart="125.89" from="277654571" to="43947368"/>
    <trip id="truck292" type="truck_truck" depart="126.76" from="70707218" to="170601197"/>
    <trip id="truck293" type="truck_truck" depart="127.19" from="42064236" to="43947365"/>
    <trip id="truck295" type="truck_truck" depart="128.06" from="70707218" to="170601197"/>
    <trip id="truck296" type="truck_truck" depart="128.49" from="277654571" to="43947368"/>
    <trip id="truck297" type="truck_truck" depart="128.93" from="277654571" to="43947368"/>
    <trip id="truck298" type="truck_truck" depart="129.36" from="43948501" to="170601197"/>
    <trip id="truck301" type="truck_truck" depart="130.66" from="42064236" to="43947368"/>
    <trip id="truck303" type="truck_truck" depart="131.53" from="42064236" to="43947368"/>
    <trip id="truck305" type="truck_truck" depart="132.40" from="43948501" to="170605263"/>
    <trip id="truck308" type="truck_truck" depart="133.70" from="43948501" to="170605263"/>
    <trip id="truck309" type="truck_truck" depart="134.14" from="43948501" to="170601197"/>
    <trip id="truck311" type="truck_truck" depart="135.01" from="277654571" to="170601193"/>
    <trip id="truck312" type="truck_truck" depart="135.44" from="42064236" to="43947368"/>
    <trip id="truck314" type="truck_truck" depart="136.31" from="42064236" to="43947365"/>
    <trip id="truck316" type="truck_truck" depart="137.18" from="277654571" to="1122897134"/>
    <trip id="truck319" type="truck_truck" depart="138.48" from="42064236" to="170601197"/>
    <trip id="truck320" type="truck_truck" depart="138.91" from="70707218" to="42064105"/>
    <trip id="truck321" type="truck_truck" depart="139.35" from="43948501" to="170601197"/>
    <trip id="truck322" type="truck_truck" depart="139.78" from="70707218" to="206489379-AddedOnRampEdge"/>
    <trip id="truck323" type="truck_truck" depart="140.21" from="70707218" to="43947365"/>
    <trip id="truck327" type="truck_truck" depart="141.95" from="70707218" to="170605263"/>
    <trip id="truck333" type="truck_truck" depart="144.56" from="43948501" to="170601197"/>
    <trip id="truck335" type="truck_truck" depart="145.42" from="42064236" to="43947368"/>
    <trip id="truck336" type="truck_truck" depart="145.86" from="70707218" to="170605263"/>
    <trip id="truck338" type="truck_truck" depart="146.73" from="43948501" to="43947369#1-AddedOnRampEdge"/>
    <trip id="truck340" type="truck_truck" depart="147.59" from="43948501" to="170601197"/>
    <trip id="truck342" type="truck_truck" depart="148.46" from="1118511056" to="170605263"/>
    <trip id="truck344" type="truck_truck" depart="149.33" from="277654571" to="43947365"/>
    <trip id="truck345" type="truck_truck" depart="149.76" from="43948501" to="170605263"/>
    <trip id="truck346" type="truck_truck" depart="150.20" from="43948501" to="43947368-AddedOnRampEdge"/>
    <trip id="truck348" type="truck_truck" depart="151.07" from="43948501" to="43947369#1"/>
    <trip id="truck350" type="truck_truck" depart="151.94" from="43948501" to="43947368"/>
    <trip id="truck361" type="truck_truck" depart="156.71" from="70707218" to="43947365"/>
    <trip id="truck362" type="truck_truck" depart="157.14" from="70707218" to="70707218-AddedOffRampEdge"/>
    <trip id="truck363" type="truck_truck" depart="157.58" from="43948501" to="170601197"/>
    <trip id="truck365" type="truck_truck" depart="158.45" from="42064236" to="43947365"/>
    <trip id="truck366" type="truck_truck" depart="158.88" from="70707218" to="170601197"/>
    <trip id="truck369" type="truck_truck" depart="160.18" from="277654571" to="170605263"/>
    <trip id="truck370" type="truck_truck" depart="160.62" from="43948501" to="43947368"/>
    <trip id="truck371" type="truck_truck" depart="161.05" from="277654571" to="43947365"/>
    <trip id="truck376" type="truck_truck" depart="163.22" from="42064236" to="206489382-AddedOffRampEdge"/>
    <trip id="truck377" type="truck_truck" depart="163.66" from="70707218" to="43947365"/>
    <trip id="truck381" type="truck_truck" depart="165.39" from="43948501" to="170601197"/>
    <trip id="truck382" type="truck_truck" depart="165.83" from="42064236" to="43947368-AddedOnRampEdge"/>
    <trip id="truck383" type="truck_truck" depart="166.26" from="42064236" to="43947365"/>
    <trip id="truck384" type="truck_truck" depart="166.69" from="170605264" to="43947390#1"/>
    <trip id="truck392" type="truck_truck" depart="170.17" from="277654571" to="43947368"/>
    <trip id="truck393" type="truck_truck" depart="170.60" from="70707218" to="170601197"/>
    <trip id="truck397" type="truck_truck" depart="172.34" from="277654571" to="43947368"/>
    <trip id="truck398" type="truck_truck" depart="172.77" from="42064236" to="43947369#1"/>
    <trip id="truck399" type="truck_truck" depart="173.21" from="42064236" to="43947368"/>
    <trip id="truck400" type="truck_truck" depart="173.64" from="277654571" to="170605263"/>
    <trip id="truck402" type="truck_truck" depart="174.51" from="42064236" to="170601197"/>
    <trip id="truck406" type="truck_truck" depart="176.24" from="277654571" to="43947365"/>
    <trip id="truck407" type="truck_truck" depart="176.68" from="42064236" to="170601197"/>
    <trip id="truck410" type="truck_truck" depart="177.98" from="43948501-AddedOffRampEdge" to="170605263"/>
    <trip id="truck411" type="truck_truck" depart="178.42" from="43948501" to="43947368"/>
    <trip id="truck412" type="truck_truck" depart="178.85" from="70707218" to="206489379-AddedOnRampEdge"/>
    <trip id="truck415" type="truck_truck" depart="180.15" from="70707218" to="170605263"/>
    <trip id="truck417" type="truck_truck" depart="181.02" from="43948501" to="170605263"/>
    <trip id="truck418" type="truck_truck" depart="181.45" from="43948501" to="170601197"/>
    <trip id="truck419" type="truck_truck" depart="181.89" from="42064236" to="43947390#1"/>
    <trip id="truck420" type="truck_truck" depart="182.32" from="277654571" to="43947365"/>
    <trip id="truck421" type="truck_truck" depart="182.76" from="43948501" to="43947368"/>
    <trip id="truck423" type="truck_truck" depart="183.62" from="42064105" to="170605263"/>
    <trip id="truck424" type="truck_truck" depart="184.06" from="43948501" to="43947368"/>
    <trip id="truck425" type="truck_truck" depart="184.49" from="70707218" to="1120029183"/>
    <trip id="truck427" type="truck_truck" depart="185.36" from="70707218" to="70707218-AddedOffRampEdge"/>
    <trip id="truck428" type="truck_truck" depart="185.80" from="43948501" to="170605263"/>
    <trip id="truck430" type="truck_truck" depart="186.66" from="70707218" to="170605263"/>
    <trip id="truck431" type="truck_truck" depart="187.10" from="43948501" to="43947368"/>
    <trip id="truck433" type="truck_truck" depart="187.97" from="277654571" to="170605263"/>
    <trip id="truck435" type="truck_truck" depart="188.83" from="42064236" to="43947368"/>
    <trip id="truck437" type="truck_truck" depart="189.70" from="70707218" to="43947365"/>
    <trip id="truck438" type="truck_truck" depart="190.14" from="277654571" to="43947368"/>
    <trip id="truck439" type="truck_truck" depart="190.57" from="206489379" to="170605263"/>
    <trip id="truck441" type="truck_truck" depart="191.44" from="1118511056-AddedOffRampEdge" to="43947368"/>
    <trip id="truck442" type="truck_truck" depart="191.87" from="70707218" to="43947365"/>
    <trip id="truck444" type="truck_truck" depart="192.74" from="277654571" to="43947365"/>
    <trip id="truck445" type="truck_truck" depart="193.17" from="43948501" to="170605263"/>
    <trip id="truck446" type="truck_truck" depart="193.61" from="277654571" to="43947368"/>
    <trip id="truck447" type="truck_truck" depart="194.04" from="277654571" to="170605263"/>
    <trip id="truck448" type="truck_truck" depart="194.48" from="42064236" to="170601197"/>
    <trip id="truck449" type="truck_truck" depart="194.91" from="42064236" to="43947365"/>
    <trip id="truck450" type="truck_truck" depart="195.35" from="70707218-AddedOffRampEdge" to="170605263"/>
    <trip id="truck451" type="truck_truck" depart="195.78" from="70707218" to="43947365"/>
    <trip id="truck454" type="truck_truck" depart="197.08" from="1120029186" to="43947365"/>
    <trip id="truck455" type="truck_truck" depart="197.52" from="42064236" to="43947368"/>
    <trip id="truck456" type="truck_truck" depart="197.95" from="277654571" to="43947368"/>
    <trip id="truck460" type="truck_truck" depart="199.69" from="43948501" to="43947368"/>
    <trip id="truck461" type="truck_truck" depart="200.12" from="43947390#1" to="43947368"/>
    <trip id="truck462" type="truck_truck" depart="200.55" from="43948501" to="170605263"/>
    <trip id="truck463" type="truck_truck" depart="200.99" from="42064236" to="43947365"/>
    <trip id="truck464" type="truck_truck" depart="201.42" from="43948501" to="1122897133"/>
    <trip id="truck465" type="truck_truck" depart="201.86" from="277654571" to="43947365-AddedOnRampEdge"/>
    <trip id="truck467" type="truck_truck" depart="202.73" from="42064236" to="43947390#1"/>
    <trip id="truck468" type="truck_truck" depart="203.16" from="42064236" to="43947368"/>
    <trip id="truck469" type="truck_truck" depart="203.59" from="70707218" to="170601197"/>
    <trip id="truck470" type="truck_truck" depart="204.03" from="70707218" to="206489379"/>
    <trip id="truck472" type="truck_truck" depart="204.90" from="277654571" to="170601193"/>
    <trip id="truck473" type="truck_truck" depart="205.33" from="70707218" to="170601197"/>
    <trip id="truck475" type="truck_truck" depart="206.20" from="43948501" to="43948501-AddedOffRampEdge"/>
    <trip id="truck479" type="truck_truck" depart="207.93" from="42064236" to="43947365"/>
    <trip id="truck481" type="truck_truck" depart="208.80" from="70707218" to="43947369#1-AddedOnRampEdge"/>
    <trip id="truck484" type="truck_truck" depart="210.10" from="42064236" to="43947368"/>
    <trip id="truck485" type="truck_truck" depart="210.54" from="277654571" to="1120029190"/>
    <trip id="truck487" type="truck_truck" depart="211.41" from="277654571" to="170605263"/>
    <trip id="truck489" type="truck_truck" depart="212.28" from="277654571" to="206489379-AddedOnRampEdge"/>
    <trip id="truck490" type="truck_truck" depart="212.71" from="1122897134" to="43947368"/>
    <trip id="truck493" type="truck_truck" depart="214.01" from="70707218" to="170605263"/>
    <trip id="truck494" type="truck_truck" depart="214.45" from="43948501" to="170601197"/>
    <trip id="truck502" type="truck_truck" depart="217.92" from="277654571" to="170605263"/>
    <trip id="truck504" type="truck_truck" depart="218.79" from="70707218" to="170605263"/>
    <trip id="truck507" type="truck_truck" depart="220.09" from="43948501" to="170601197"/>
    <trip id="truck508" type="truck_truck" depart="220.52" from="170605264" to="42064232"/>
    <trip id="truck511" type="truck_truck" depart="221.83" from="70707218" to="170605263"/>
    <trip id="truck513" type="truck_truck" depart="222.69" from="1118511056" to="43947368"/>
    <trip id="truck517" type="truck_truck" depart="224.43" from="1118511056-AddedOffRampEdge" to="43947368"/>
    <trip id="truck518" type="truck_truck" depart="224.86" from="277654571" to="170605263"/>
    <trip id="truck524" type="truck_truck" depart="227.47" from="70707218" to="1120029186"/>
    <trip id="truck525" type="truck_truck" depart="227.90" from="43948501" to="43947368"/>
    <trip id="truck529" type="truck_truck" depart="229.64" from="43948501" to="206489379-AddedOnRampEdge"/>
    <trip id="truck537" type="truck_truck" depart="233.11" from="43948501" to="43947368"/>
    <trip id="truck538" type="truck_truck" depart="233.55" from="43948501" to="43947368"/>
    <trip id="truck539" type="truck_truck" depart="233.98" from="43948501" to="170601197"/>
    <trip id="truck540" type="truck_truck" depart="234.41" from="42064236" to="170601197"/>
    <trip id="truck541" type="truck_truck" depart="234.85" from="277654571" to="170605263"/>
    <trip id="truck543" type="truck_truck" depart="235.72" from="42064236" to="43947365"/>
    <trip id="truck551" type="truck_truck" depart="239.19" from="277654571" to="43947365"/>
    <trip id="truck552" type="truck_truck" depart="239.62" from="43948501" to="43947368"/>
    <trip id="truck556" type="truck_truck" depart="241.36" from="43948501" to="170601197"/>
    <trip id="truck558" type="truck_truck" depart="242.23" from="41844004" to="43947368"/>
    <trip id="truck565" type="truck_truck" depart="245.27" from="43948501" to="170605263"/>
    <trip id="truck570" type="truck_truck" depart="247.44" from="43948501" to="170601197"/>
    <trip id="truck576" type="truck_truck" depart="250.04" from="43948501" to="170601197"/>
    <trip id="truck577" type="truck_truck" depart="250.48" from="43948501" to="206489379"/>
    <trip id="truck578" type="truck_truck" depart="250.91" from="42064236" to="170601197"/>