<?xml version="1.0" encoding="UTF-8"?>
<configuration>
    <input>
        <net-file value="test.net.xml"/>
        <route-files value="test.bus.trips.xml,test.truck.trips.xml,test.passenger.trips.xml"/>
    </input>
    <time>
        <begin value="0"/>
        <end value="3600"/>
    </time>
    <processing>
        <time-to-teleport value="-1"/>
        <ignore-route-errors value="true"/>
    </processing>
    <report>
        <verbose value="true"/>
        <no-step-log value="true"/>
    </report>
</configuration>