<?xml version="1.0" encoding="UTF-8"?>

<!-- generated on 2024-12-08 21:51:11.458141 by main.py UNKNOWN
<configuration>
    <net-file value="/root/myvenv/nextpj/src/backend/data/test.net.xml"/>
    <output-trip-file value="/root/myvenv/nextpj/src/backend/data/test.bus.trips.xml"/>
    <prefix value="bus_"/>
    <vehicle-class value="bus"/>
    <fringe-factor value="17.0"/>
    <validate value="True"/>
    <period value="40.0"/>
</configuration>
-->

<!-- generated on 2024-12-08 21:51:11 by Eclipse SUMO duarouter Version 1.21.0
<duarouterConfiguration xmlns:xsi="http://www.w3.org/2001/XMLSchema-instance" xsi:noNamespaceSchemaLocation="http://sumo.dlr.de/xsd/duarouterConfiguration.xsd">

    <input>
        <net-file value="/root/myvenv/nextpj/src/backend/data/test.net.xml"/>
        <route-files value="/root/myvenv/nextpj/src/backend/data/test.bus.trips.xml"/>
    </input>

    <output>
        <output-file value="/root/myvenv/nextpj/src/backend/data/test.bus.trips.xml.tmp"/>
        <alternatives-output value="NUL"/>
        <write-trips value="true"/>
    </output>

    <time>
        <begin value="0.0"/>
        <end value="3600.0"/>
    </time>

    <report>
        <no-warnings value="true"/>
        <ignore-errors value="true"/>
        <no-step-log value="true"/>
    </report>

</duarouterConfiguration>
-->

<routes xmlns:xsi="http://www.w3.org/2001/XMLSchema-instance" xsi:noNamespaceSchemaLocation="http://sumo.dlr.de/xsd/routes_file.xsd">
    <vType id="bus__bus" vClass="bus"/>
    <trip id="bus_4" type="bus__bus" depart="160.00" from="42064236" to="1120029182"/>
    <trip id="bus_5" type="bus__bus" depart="200.00" from="277654571" to="206489381"/>
    <trip id="bus_7" type="bus__bus" depart="280.00" from="43947390#1" to="206489381"/>
    <trip id="bus_8" type="bus__bus" depart="320.00" from="277654571" to="206489381"/>
    <trip id="bus_9" type="bus__bus" depart="360.00" from="43948501" to="1118511056"/>
    <trip id="bus_12" type="bus__bus" depart="480.00" from="70707218" to="170605263"/>
    <trip id="bus_17" type="bus__bus" depart="680.00" from="41844004" to="206489381"/>
    <trip id="bus_24" type="bus__bus" depart="960.00" from="43947386#1" to="170605263"/>
    <trip id="bus_25" type="bus__bus" depart="1000.00" from="406802122" to="170601197"/>
    <trip id="bus_27" type="bus__bus" depart="1080.00" from="43947390#1" to="206489381"/>
    <trip id="bus_29" type="bus__bus" depart="1160.00" from="206489379-AddedOnRampEdge" to="170605263"/>
    <trip id="bus_31" type="bus__bus" depart="1240.00" from="42064236" to="277653336"/>
    <trip id="bus_32" type="bus__bus" depart="1280.00" from="70707218" to="43947365"/>
    <trip id="bus_36" type="bus__bus" depart="1440.00" from="70707218" to="170605263"/>
    <trip id="bus_37" type="bus__bus" depart="1480.00" from="43948501" to="170605263"/>
    <trip id="bus_40" type="bus__bus" depart="1600.00" from="42064236" to="170601197"/>
    <trip id="bus_41" type="bus__bus" depart="1640.00" from="43947365-AddedOnRampEdge" to="43947365-AddedOnRampEdge"/>
    <trip id="bus_42" type="bus__bus" depart="1680.00" from="42064105-AddedOffRampEdge" to="170601197"/>
    <trip id="bus_45" type="bus__bus" depart="1800.00" from="1122897134" to="206489381"/>
    <trip id="bus_46" type="bus__bus" depart="1840.00" from="43948501" to="170605263"/>
    <trip id="bus_49" type="bus__bus" depart="1960.00" from="70707218" to="43947365"/>
    <trip id="bus_51" type="bus__bus" depart="2040.00" from="43948501" to="206489381"/>
    <trip id="bus_52" type="bus__bus" depart="2080.00" from="277654571" to="206489381"/>
    <trip id="bus_53" type="bus__bus" depart="2120.00" from="1122897134" to="170605263"/>
    <trip id="bus_55" type="bus__bus" depart="2200.00" from="70707218" to="170601197"/>
    <trip id="bus_56" type="bus__bus" depart="2240.00" from="42064236" to="170601197"/>
    <trip id="bus_57" type="bus__bus" depart="2280.00" from="70707218" to="43947365"/>
    <trip id="bus_58" type="bus__bus" depart="2320.00" from="277654571" to="206489381"/>
    <trip id="bus_59" type="bus__bus" depart="2360.00" from="43947369#1" to="170601197"/>
    <trip id="bus_60" type="bus__bus" depart="2400.00" from="43948501" to="206489381"/>
    <trip id="bus_61" type="bus__bus" depart="2440.00" from="43948501" to="206489381"/>
    <trip id="bus_62" type="bus__bus" depart="2480.00" from="1118511056" to="170605263"/>
    <trip id="bus_64" type="bus__bus" depart="2560.00" from="70707218" to="43947365"/>
    <trip id="bus_65" type="bus__bus" depart="2600.00" from="277654571" to="1120029189"/>
    <trip id="bus_67" type="bus__bus" depart="2680.00" from="1120029196" to="206489379-AddedOnRampEdge"/>
    <trip id="bus_70" type="bus__bus" depart="2800.00" from="42064236" to="206489381"/>
    <trip id="bus_71" type="bus__bus" depart="2840.00" from="277654571" to="43947365"/>
    <trip id="bus_72" type="bus__bus" depart="2880.00" from="42064236" to="170601197"/>
    <trip id="bus_73" type="bus__bus" depart="2920.00" from="42064236" to="42064232"/>
    <trip id="bus_76" type="bus__bus" depart="3040.00" from="42064236" to="206489381"/>
    <trip id="bus_78" type="bus__bus" depart="3120.00" from="277654571" to="206489381"/>
    <trip id="bus_80" type="bus__bus" depart="3200.00" from="1120029190" to="206489381"/>
    <trip id="bus_81" type="bus__bus" depart="3240.00" from="277654571" to="43947365-AddedOnRampEdge"/>
    <trip id="bus_86" type="bus__bus" depart="3440.00" from="42064236" to="43947365"/>
    <trip id="bus_87" type="bus__bus" depart="3480.00" from="43948501" to="170601197"/>
    <trip id="bus_89" type="bus__bus" depart="3560.00" from="42064236" to="170605269"/>
</routes>
