<?xml version="1.0" encoding="UTF-8"?>

<!-- generated on 2024-12-08 21:51:10 by Eclipse SUMO netconvert Version 1.21.0
<netconvertConfiguration xmlns:xsi="http://www.w3.org/2001/XMLSchema-instance" xsi:noNamespaceSchemaLocation="http://sumo.dlr.de/xsd/netconvertConfiguration.xsd">

    <input>
        <osm-files value="/root/myvenv/nextpj/src/backend/data/test.osm"/>
    </input>

    <output>
        <precision.geo value="2"/>
        <output-file value="/root/myvenv/nextpj/src/backend/data/test.net.xml"/>
        <output.street-names value="true"/>
        <output.original-names value="true"/>
    </output>

    <projection>
        <proj.utm value="true"/>
    </projection>

    <processing>
        <geometry.remove value="true"/>
        <geometry.min-dist value="1"/>
        <geometry.avoid-overlap value="true"/>
        <roundabouts.guess value="true"/>
    </processing>

    <tls_building>
        <tls.discard-simple value="true"/>
        <tls.join value="true"/>
        <tls.guess-signals value="true"/>
        <tls.default-type value="actuated"/>
    </tls_building>

    <ramp_guessing>
        <ramps.guess value="true"/>
    </ramp_guessing>

    <edge_removal>
        <remove-edges.isolated value="true"/>
    </edge_removal>

    <junctions>
        <junctions.join value="true"/>
        <junctions.corner-detail value="5"/>
    </junctions>

</netconvertConfiguration>
-->

<net version="1.20" junctionCornerDetail="5" limitTurnSpeed="5.50" xmlns:xsi="http://www.w3.org/2001/XMLSchema-instance" xsi:noNamespaceSchemaLocation="http://sumo.dlr.de/xsd/net_file.xsd">

    <location netOffset="-330134.03,-4126933.57" convBoundary="0.00,0.00,3304.79,5422.72" origBoundary="127.08,37.27,127.12,37.32" projParameter="+proj=utm +zone=52 +ellps=WGS84 +datum=WGS84 +units=m +no_defs"/>

    <type id="highway.motorway" priority="14" numLanes="2" speed="39.44" allow="private emergency authority army vip passenger hov taxi bus coach delivery truck trailer motorcycle evehicle custom1 custom2" oneway="1"/>
    <type id="highway.motorway_link" priority="9" numLanes="1" speed="22.22" allow="private emergency authority army vip passenger hov taxi bus coach delivery truck trailer motorcycle evehicle custom1 custom2" oneway="1"/>

    <edge id=":10243921936_0" function="internal">
        <lane id=":10243921936_0_0" index="0" allow="private emergency authority army vip passenger hov taxi bus coach delivery truck trailer motorcycle evehicle custom1 custom2" speed="16.67" length="3.00" shape="1715.80,1569.72 1716.58,1566.83"/>
    </edge>
    <edge id=":10243921936_1" function="internal">
        <lane id=":10243921936_1_0" index="0" allow="private emergency authority army vip passenger hov taxi bus coach delivery truck trailer motorcycle evehicle custom1 custom2" speed="18.05" length="3.04" shape="1709.90,1568.14 1709.98,1567.24 1710.06,1566.63 1710.18,1566.02 1710.41,1565.14"/>
        <lane id=":10243921936_1_1" index="1" allow="private emergency authority army vip passenger hov taxi bus coach delivery truck trailer motorcycle evehicle custom1 custom2" speed="18.05" length="3.04" shape="1713.03,1568.98 1713.11,1568.08 1713.17,1567.47 1713.27,1566.86 1713.49,1565.99"/>
    </edge>
    <edge id=":10243921944_0" function="internal">
        <lane id=":10243921944_0_0" index="0" allow="private emergency authority army vip passenger hov taxi bus coach delivery truck trailer motorcycle evehicle custom1 custom2" speed="30.56" length="4.17" shape="1747.28,1367.72 1747.17,1363.57"/>
        <lane id=":10243921944_0_1" index="1" allow="private emergency authority army vip passenger hov taxi bus coach delivery truck trailer motorcycle evehicle custom1 custom2" speed="30.56" length="4.17" shape="1750.48,1367.64 1750.37,1363.48"/>
        <lane id=":10243921944_0_2" index="2" allow="private emergency authority army vip passenger hov taxi bus coach delivery truck trailer motorcycle evehicle custom1 custom2" speed="30.56" length="4.17" shape="1753.68,1367.56 1753.56,1363.39"/>
        <lane id=":10243921944_0_3" index="3" allow="private emergency authority army vip passenger hov taxi bus coach delivery truck trailer motorcycle evehicle custom1 custom2" speed="30.56" length="4.17" shape="1756.88,1367.47 1756.76,1363.30"/>
    </edge>
    <edge id=":10243921944_4" function="internal">
        <lane id=":10243921944_4_0" index="0" allow="private emergency authority army vip passenger hov taxi bus coach delivery truck trailer motorcycle evehicle custom1 custom2" speed="26.39" length="4.19" shape="1738.15,1367.96 1737.90,1366.75 1737.73,1365.91 1737.63,1365.07 1737.57,1363.83"/>
        <lane id=":10243921944_4_1" index="1" allow="private emergency authority army vip passenger hov taxi bus coach delivery truck trailer motorcycle evehicle custom1 custom2" speed="26.39" length="4.19" shape="1741.40,1367.88 1741.14,1366.66 1740.95,1365.83 1740.84,1364.98 1740.77,1363.74"/>
        <lane id=":10243921944_4_2" index="2" allow="private emergency authority army vip passenger hov taxi bus coach delivery truck trailer motorcycle evehicle custom1 custom2" speed="26.39" length="4.19" shape="1744.65,1367.79 1744.38,1366.57 1744.18,1365.74 1744.04,1364.90 1743.97,1363.65"/>
    </edge>
    <edge id=":10243923542_0" function="internal">
        <lane id=":10243923542_0_0" index="0" allow="private emergency authority army vip passenger hov taxi bus coach delivery truck trailer motorcycle evehicle custom1 custom2" speed="13.89" length="19.46" shape="1854.45,1968.40 1851.56,1973.35 1849.47,1976.70 1847.69,1980.18 1845.76,1985.53"/>
        <lane id=":10243923542_0_1" index="1" allow="private emergency authority army vip passenger hov taxi bus coach delivery truck trailer motorcycle evehicle custom1 custom2" speed="13.89" length="19.46" shape="1851.52,1967.09 1848.58,1972.14 1846.46,1975.55 1844.67,1979.11 1842.71,1984.57"/>
    </edge>
    <edge id=":10243923542_2" function="internal">
        <lane id=":10243923542_2_0" index="0" allow="private emergency authority army vip passenger hov taxi bus coach delivery truck trailer motorcycle evehicle custom1 custom2" speed="12.50" length="19.76" shape="1848.24,1965.85 1846.71,1969.32 1844.52,1973.00 1842.05,1977.54 1839.65,1983.60"/>
    </edge>
    <edge id=":10243923560_0" function="internal">
        <lane id=":10243923560_0_0" index="0" allow="private emergency authority army vip passenger hov taxi bus coach delivery truck trailer motorcycle evehicle custom1 custom2" speed="30.56" length="4.18" shape="1797.30,2258.10 1797.36,2262.25"/>
        <lane id=":10243923560_0_1" index="1" allow="private emergency authority army vip passenger hov taxi bus coach delivery truck trailer motorcycle evehicle custom1 custom2" speed="30.56" length="4.18" shape="1794.10,2258.13 1794.16,2262.31"/>
        <lane id=":10243923560_0_2" index="2" allow="private emergency authority army vip passenger hov taxi bus coach delivery truck trailer motorcycle evehicle custom1 custom2" speed="30.56" length="4.18" shape="1790.90,2258.17 1790.97,2262.36"/>
        <lane id=":10243923560_0_3" index="3" allow="private emergency authority army vip passenger hov taxi bus coach delivery truck trailer motorcycle evehicle custom1 custom2" speed="30.56" length="4.18" shape="1787.70,2258.20 1787.77,2262.41"/>
    </edge>
    <edge id=":10243923560_4" function="internal">
        <lane id=":10243923560_4_0" index="0" allow="private emergency authority army vip passenger hov taxi bus coach delivery truck trailer motorcycle evehicle custom1 custom2" speed="22.22" length="4.26" shape="1806.06,2258.01 1806.45,2259.20 1806.72,2260.02 1806.89,2260.86 1806.96,2262.10"/>
        <lane id=":10243923560_4_1" index="1" allow="private emergency authority army vip passenger hov taxi bus coach delivery truck trailer motorcycle evehicle custom1 custom2" speed="22.22" length="4.26" shape="1802.74,2258.05 1803.15,2259.25 1803.46,2260.07 1803.67,2260.90 1803.76,2262.15"/>
        <lane id=":10243923560_4_2" index="2" allow="private emergency authority army vip passenger hov taxi bus coach delivery truck trailer motorcycle evehicle custom1 custom2" speed="22.22" length="4.26" shape="1799.42,2258.08 1799.85,2259.29 1800.20,2260.11 1800.45,2260.94 1800.56,2262.20"/>
    </edge>
    <edge id=":10243923563_0" function="internal">
        <lane id=":10243923563_0_0" index="0" allow="private emergency authority army vip passenger hov taxi bus coach delivery truck trailer motorcycle evehicle custom1 custom2" speed="18.05" length="3.21" shape="1745.67,2204.69 1745.19,2201.51"/>
    </edge>
    <edge id=":10243923563_1" function="internal">
        <lane id=":10243923563_1_0" index="0" allow="private emergency authority army vip passenger hov taxi bus coach delivery truck trailer motorcycle evehicle custom1 custom2" speed="16.67" length="3.30" shape="1748.84,2204.26 1748.71,2203.25 1748.63,2202.55 1748.59,2201.85 1748.54,2200.83"/>
        <lane id=":10243923563_1_1" index="1" allow="private emergency authority army vip passenger hov taxi bus coach delivery truck trailer motorcycle evehicle custom1 custom2" speed="16.67" length="3.30" shape="1752.01,2203.83 1751.89,2202.91 1751.82,2202.27 1751.78,2201.63 1751.74,2200.70"/>
    </edge>
    <edge id=":10243923594_0" function="internal">
        <lane id=":10243923594_0_0" index="0" allow="private emergency authority army vip passenger hov taxi bus coach delivery truck trailer motorcycle evehicle custom1 custom2" speed="13.89" length="24.44" shape="1958.12,1604.75 1961.34,1607.47 1965.86,1610.41 1971.14,1614.48 1976.60,1620.54"/>
    </edge>
    <edge id=":10243923594_1" function="internal">
        <lane id=":10243923594_1_0" index="0" allow="private emergency authority army vip passenger hov taxi bus coach delivery truck trailer motorcycle evehicle custom1 custom2" speed="12.50" length="24.24" shape="1955.34,1607.16 1960.74,1610.55 1965.11,1613.26 1969.26,1616.73 1974.02,1622.43"/>
        <lane id=":10243923594_1_1" index="1" allow="private emergency authority army vip passenger hov taxi bus coach delivery truck trailer motorcycle evehicle custom1 custom2" speed="12.50" length="24.24" shape="1952.83,1609.32 1958.23,1612.69 1962.59,1615.32 1966.72,1618.70 1971.44,1624.32"/>
    </edge>
    <edge id=":10243923615_0" function="internal">
        <lane id=":10243923615_0_0" index="0" allow="private emergency authority army vip passenger hov taxi bus coach delivery truck trailer motorcycle evehicle custom1 custom2" speed="13.89" length="8.81" shape="2253.77,1843.20 2256.28,1843.10 2257.97,1842.26 2259.67,1841.41 2262.18,1841.31"/>
    </edge>
    <edge id=":10243923626_0" function="internal">
        <lane id=":10243923626_0_0" index="0" allow="private emergency authority army vip passenger hov taxi bus coach delivery truck trailer motorcycle evehicle custom1 custom2" speed="13.89" length="61.77" shape="1793.33,1250.53 1794.69,1261.50 1797.34,1281.15 1800.09,1300.79 1801.73,1311.73"/>
    </edge>
    <edge id=":10243923626_1" function="internal">
        <lane id=":10243923626_1_0" index="0" allow="private emergency authority army vip passenger hov taxi bus coach delivery truck trailer motorcycle evehicle custom1 custom2" speed="12.50" length="61.71" shape="1793.33,1250.53 1798.01,1312.06"/>
        <lane id=":10243923626_1_1" index="1" allow="private emergency authority army vip passenger hov taxi bus coach delivery truck trailer motorcycle evehicle custom1 custom2" speed="12.50" length="61.71" shape="1793.33,1250.53 1794.81,1312.21"/>
    </edge>
    <edge id=":10243923654_0" function="internal">
        <lane id=":10243923654_0_0" index="0" allow="private emergency authority army vip passenger hov taxi bus coach delivery truck trailer motorcycle evehicle custom1 custom2" speed="13.89" length="42.32" shape="1560.15,1970.44 1533.25,1937.77"/>
    </edge>
    <edge id=":10243923654_1" function="internal">
        <lane id=":10243923654_1_0" index="0" allow="private emergency authority army vip passenger hov taxi bus coach delivery truck trailer motorcycle evehicle custom1 custom2" speed="12.50" length="42.24" shape="1562.96,1968.02 1555.99,1961.63 1547.55,1953.41 1539.38,1944.93 1533.25,1937.77"/>
        <lane id=":10243923654_1_1" index="1" allow="private emergency authority army vip passenger hov taxi bus coach delivery truck trailer motorcycle evehicle custom1 custom2" speed="12.50" length="42.24" shape="1565.26,1965.78 1558.34,1959.44 1549.98,1951.33 1541.90,1942.95 1535.81,1935.84"/>
    </edge>
    <edge id=":1118511056-AddedOffRampNode_0" function="internal">
        <lane id=":1118511056-AddedOffRampNode_0_0" index="0" allow="private emergency authority army vip passenger hov taxi bus coach delivery truck trailer motorcycle evehicle custom1 custom2" speed="22.22" length="8.27" shape="1763.06,2305.63 1762.22,2303.27 1760.91,2301.90 1759.60,2300.54 1758.75,2298.17"/>
        <lane id=":1118511056-AddedOffRampNode_0_1" index="1" allow="private emergency authority army vip passenger hov taxi bus coach delivery truck trailer motorcycle evehicle custom1 custom2" speed="22.22" length="8.27" shape="1763.06,2305.63 1761.92,2297.71"/>
        <lane id=":1118511056-AddedOffRampNode_0_2" index="2" allow="private emergency authority army vip passenger hov taxi bus coach delivery truck trailer motorcycle evehicle custom1 custom2" speed="22.22" length="8.27" shape="1766.23,2305.17 1765.09,2297.26"/>
    </edge>
    <edge id=":1817710515_0" function="internal">
        <lane id=":1817710515_0_0" index="0" allow="private emergency authority army vip passenger hov taxi bus coach delivery truck trailer motorcycle evehicle custom1 custom2" speed="30.56" length="8.21" shape="1745.86,1105.23 1745.61,1102.85 1745.06,1101.27 1744.49,1099.68 1744.22,1097.31"/>
        <lane id=":1817710515_0_1" index="1" allow="private emergency authority army vip passenger hov taxi bus coach delivery truck trailer motorcycle evehicle custom1 custom2" speed="30.56" length="8.21" shape="1749.06,1105.23 1748.81,1102.84 1748.26,1101.25 1747.69,1099.66 1747.42,1097.27"/>
        <lane id=":1817710515_0_2" index="2" allow="private emergency authority army vip passenger hov taxi bus coach delivery truck trailer motorcycle evehicle custom1 custom2" speed="30.56" length="8.21" shape="1752.26,1105.23 1752.01,1102.83 1751.46,1101.23 1750.89,1099.63 1750.62,1097.23"/>
        <lane id=":1817710515_0_3" index="3" allow="private emergency authority army vip passenger hov taxi bus coach delivery truck trailer motorcycle evehicle custom1 custom2" speed="30.56" length="8.21" shape="1755.46,1105.23 1755.21,1102.82 1754.66,1101.21 1754.09,1099.60 1753.81,1097.20"/>
        <lane id=":1817710515_0_4" index="4" allow="private emergency authority army vip passenger hov taxi bus coach delivery truck trailer motorcycle evehicle custom1 custom2" speed="30.56" length="8.21" shape="1755.46,1105.23 1755.71,1102.81 1756.26,1101.19 1756.79,1099.57 1757.01,1097.16"/>
    </edge>
    <edge id=":1817735640_0" function="internal">
        <lane id=":1817735640_0_0" index="0" allow="private emergency authority army vip passenger hov taxi bus coach delivery truck trailer motorcycle evehicle custom1 custom2" speed="27.78" length="8.36" shape="1277.97,1758.24 1280.61,1757.49 1282.14,1755.85 1283.66,1754.26 1286.31,1753.64"/>
        <lane id=":1817735640_0_1" index="1" allow="private emergency authority army vip passenger hov taxi bus coach delivery truck trailer motorcycle evehicle custom1 custom2" speed="27.78" length="8.36" shape="1277.97,1758.24 1280.41,1757.99 1282.06,1757.46 1283.71,1756.97 1286.15,1756.83"/>
        <lane id=":1817735640_0_2" index="2" allow="private emergency authority army vip passenger hov taxi bus coach delivery truck trailer motorcycle evehicle custom1 custom2" speed="27.78" length="8.36" shape="1277.97,1761.44 1280.37,1761.19 1281.99,1760.66 1283.60,1760.17 1286.00,1760.03"/>
        <lane id=":1817735640_0_3" index="3" allow="private emergency authority army vip passenger hov taxi bus coach delivery truck trailer motorcycle evehicle custom1 custom2" speed="27.78" length="8.36" shape="1277.97,1764.64 1280.33,1764.39 1281.91,1763.86 1283.49,1763.37 1285.85,1763.23"/>
        <lane id=":1817735640_0_4" index="4" allow="private emergency authority army vip passenger hov taxi bus coach delivery truck trailer motorcycle evehicle custom1 custom2" speed="27.78" length="8.36" shape="1277.98,1767.84 1280.29,1767.59 1281.84,1767.06 1283.39,1766.56 1285.69,1766.42"/>
        <lane id=":1817735640_0_5" index="5" allow="private emergency authority army vip passenger hov taxi bus coach delivery truck trailer motorcycle evehicle custom1 custom2" speed="27.78" length="8.36" shape="1277.98,1771.04 1280.24,1770.79 1281.76,1770.26 1283.28,1769.76 1285.54,1769.62"/>
    </edge>
    <edge id=":206489379-AddedOnRampNode_0" function="internal">
        <lane id=":206489379-AddedOnRampNode_0_0" index="0" allow="private emergency authority army vip passenger hov taxi bus coach delivery truck trailer motorcycle evehicle custom1 custom2" speed="27.78" length="8.00" shape="1200.32,1790.53 1192.32,1790.70"/>
        <lane id=":206489379-AddedOnRampNode_0_1" index="1" allow="private emergency authority army vip passenger hov taxi bus coach delivery truck trailer motorcycle evehicle custom1 custom2" speed="27.78" length="8.00" shape="1200.25,1787.33 1192.25,1787.50"/>
        <lane id=":206489379-AddedOnRampNode_0_2" index="2" allow="private emergency authority army vip passenger hov taxi bus coach delivery truck trailer motorcycle evehicle custom1 custom2" speed="27.78" length="8.00" shape="1200.18,1784.13 1192.18,1784.30"/>
        <lane id=":206489379-AddedOnRampNode_0_3" index="3" allow="private emergency authority army vip passenger hov taxi bus coach delivery truck trailer motorcycle evehicle custom1 custom2" speed="27.78" length="8.00" shape="1200.11,1780.94 1192.12,1781.10"/>
        <lane id=":206489379-AddedOnRampNode_0_4" index="4" allow="private emergency authority army vip passenger hov taxi bus coach delivery truck trailer motorcycle evehicle custom1 custom2" speed="27.78" length="8.00" shape="1200.05,1777.74 1192.05,1777.90"/>
    </edge>
    <edge id=":206489382-AddedOffRampNode_0" function="internal">
        <lane id=":206489382-AddedOffRampNode_0_0" index="0" allow="private emergency authority army vip passenger hov taxi bus coach delivery truck trailer motorcycle evehicle custom1 custom2" speed="27.78" length="8.16" shape="1715.21,1782.51 1717.70,1782.13 1719.29,1781.11 1720.88,1780.09 1723.37,1779.72"/>
        <lane id=":206489382-AddedOffRampNode_0_1" index="1" allow="private emergency authority army vip passenger hov taxi bus coach delivery truck trailer motorcycle evehicle custom1 custom2" speed="27.78" length="8.16" shape="1715.21,1782.51 1723.20,1782.92"/>
        <lane id=":206489382-AddedOffRampNode_0_2" index="2" allow="private emergency authority army vip passenger hov taxi bus coach delivery truck trailer motorcycle evehicle custom1 custom2" speed="27.78" length="8.16" shape="1715.05,1785.70 1723.04,1786.11"/>
        <lane id=":206489382-AddedOffRampNode_0_3" index="3" allow="private emergency authority army vip passenger hov taxi bus coach delivery truck trailer motorcycle evehicle custom1 custom2" speed="27.78" length="8.16" shape="1714.89,1788.90 1722.88,1789.31"/>
        <lane id=":206489382-AddedOffRampNode_0_4" index="4" allow="private emergency authority army vip passenger hov taxi bus coach delivery truck trailer motorcycle evehicle custom1 custom2" speed="27.78" length="8.16" shape="1714.72,1792.09 1722.71,1792.50"/>
    </edge>
    <edge id=":2164982311_0" function="internal">
        <lane id=":2164982311_0_0" index="0" allow="private emergency authority army vip passenger hov taxi bus coach delivery truck trailer motorcycle evehicle custom1 custom2" speed="27.78" length="8.79" shape="3129.25,1913.59 3131.56,1912.72 3132.85,1911.39 3134.14,1910.03 3136.43,1909.06"/>
        <lane id=":2164982311_0_1" index="1" allow="private emergency authority army vip passenger hov taxi bus coach delivery truck trailer motorcycle evehicle custom1 custom2" speed="27.78" length="8.79" shape="3129.75,1916.75 3132.09,1915.88 3133.41,1914.54 3134.73,1913.17 3137.05,1912.20"/>
        <lane id=":2164982311_0_2" index="2" allow="private emergency authority army vip passenger hov taxi bus coach delivery truck trailer motorcycle evehicle custom1 custom2" speed="27.78" length="8.79" shape="3130.25,1919.91 3132.62,1919.03 3133.97,1917.69 3135.31,1916.32 3137.67,1915.34"/>
    </edge>
    <edge id=":2821340848_0" function="internal">
        <lane id=":2821340848_0_0" index="0" allow="private emergency authority army vip passenger hov taxi bus coach delivery truck trailer motorcycle evehicle custom1 custom2" speed="27.78" length="8.13" shape="1892.40,1794.09 1894.86,1794.06 1896.54,1793.67 1898.23,1793.31 1900.67,1793.38"/>
        <lane id=":2821340848_0_1" index="1" allow="private emergency authority army vip passenger hov taxi bus coach delivery truck trailer motorcycle evehicle custom1 custom2" speed="27.78" length="8.13" shape="1892.40,1794.09 1894.78,1794.55 1896.34,1795.25 1897.89,1795.99 1900.26,1796.55"/>
        <lane id=":2821340848_0_2" index="2" allow="private emergency authority army vip passenger hov taxi bus coach delivery truck trailer motorcycle evehicle custom1 custom2" speed="27.78" length="8.13" shape="1892.13,1797.28 1894.47,1797.74 1895.99,1798.44 1897.51,1799.17 1899.84,1799.73"/>
        <lane id=":2821340848_0_3" index="3" allow="private emergency authority army vip passenger hov taxi bus coach delivery truck trailer motorcycle evehicle custom1 custom2" speed="27.78" length="8.13" shape="1891.85,1800.47 1894.15,1800.92 1895.65,1801.62 1897.14,1802.35 1899.43,1802.90"/>
        <lane id=":2821340848_0_4" index="4" allow="private emergency authority army vip passenger hov taxi bus coach delivery truck trailer motorcycle evehicle custom1 custom2" speed="27.78" length="8.13" shape="1891.58,1803.66 1893.84,1804.10 1895.30,1804.80 1896.76,1805.53 1899.01,1806.07"/>
    </edge>
    <edge id=":2821340850_0" function="internal">
        <lane id=":2821340850_0_0" index="0" allow="private emergency authority army vip passenger hov taxi bus coach delivery truck trailer motorcycle evehicle custom1 custom2" speed="19.44" length="2.55" shape="1703.75,1812.19 1701.20,1812.11"/>
    </edge>
    <edge id=":2821340850_1" function="internal">
        <lane id=":2821340850_1_0" index="0" allow="private emergency authority army vip passenger hov taxi bus coach delivery truck trailer motorcycle evehicle custom1 custom2" speed="27.78" length="2.97" shape="1703.93,1808.99 1701.21,1808.89"/>
        <lane id=":2821340850_1_1" index="1" allow="private emergency authority army vip passenger hov taxi bus coach delivery truck trailer motorcycle evehicle custom1 custom2" speed="27.78" length="2.97" shape="1704.11,1805.80 1701.23,1805.69"/>
        <lane id=":2821340850_1_2" index="2" allow="private emergency authority army vip passenger hov taxi bus coach delivery truck trailer motorcycle evehicle custom1 custom2" speed="27.78" length="2.97" shape="1704.29,1802.60 1701.24,1802.49"/>
        <lane id=":2821340850_1_3" index="3" allow="private emergency authority army vip passenger hov taxi bus coach delivery truck trailer motorcycle evehicle custom1 custom2" speed="27.78" length="2.97" shape="1704.47,1799.41 1701.25,1799.29"/>
    </edge>
    <edge id=":3659968320_0" function="internal">
        <lane id=":3659968320_0_0" index="0" allow="private emergency authority army vip passenger hov taxi bus coach delivery truck trailer motorcycle evehicle custom1 custom2" speed="27.78" length="3.81" shape="2637.72,1919.67 2641.52,1920.05"/>
        <lane id=":3659968320_0_1" index="1" allow="private emergency authority army vip passenger hov taxi bus coach delivery truck trailer motorcycle evehicle custom1 custom2" speed="27.78" length="3.81" shape="2637.40,1922.85 2641.19,1923.24"/>
        <lane id=":3659968320_0_2" index="2" allow="private emergency authority army vip passenger hov taxi bus coach delivery truck trailer motorcycle evehicle custom1 custom2" speed="27.78" length="3.81" shape="2637.08,1926.04 2640.87,1926.42"/>
        <lane id=":3659968320_0_3" index="3" allow="private emergency authority army vip passenger hov taxi bus coach delivery truck trailer motorcycle evehicle custom1 custom2" speed="27.78" length="3.81" shape="2636.75,1929.22 2640.54,1929.60"/>
        <lane id=":3659968320_0_4" index="4" allow="private emergency authority army vip passenger hov taxi bus coach delivery truck trailer motorcycle evehicle custom1 custom2" speed="27.78" length="3.81" shape="2636.43,1932.41 2640.21,1932.79"/>
    </edge>
    <edge id=":3659968320_5" function="internal">
        <lane id=":3659968320_5_0" index="0" allow="private emergency authority army vip passenger hov taxi bus coach delivery truck trailer motorcycle evehicle custom1 custom2" speed="20.83" length="3.85" shape="2638.00,1916.87 2639.15,1916.80 2639.93,1916.76 2640.71,1916.77 2641.85,1916.87"/>
    </edge>
    <edge id=":42064105-AddedOffRampNode_0" function="internal">
        <lane id=":42064105-AddedOffRampNode_0_0" index="0" allow="private emergency authority army vip passenger hov taxi bus coach delivery truck trailer motorcycle evehicle custom1 custom2" speed="27.78" length="8.16" shape="1806.48,1814.81 1803.99,1815.17 1802.40,1816.18 1800.80,1817.19 1798.31,1817.55"/>
        <lane id=":42064105-AddedOffRampNode_0_1" index="1" allow="private emergency authority army vip passenger hov taxi bus coach delivery truck trailer motorcycle evehicle custom1 custom2" speed="27.78" length="8.16" shape="1806.48,1814.81 1798.49,1814.36"/>
        <lane id=":42064105-AddedOffRampNode_0_2" index="2" allow="private emergency authority army vip passenger hov taxi bus coach delivery truck trailer motorcycle evehicle custom1 custom2" speed="27.78" length="8.16" shape="1806.66,1811.62 1798.68,1811.16"/>
        <lane id=":42064105-AddedOffRampNode_0_3" index="3" allow="private emergency authority army vip passenger hov taxi bus coach delivery truck trailer motorcycle evehicle custom1 custom2" speed="27.78" length="8.16" shape="1806.84,1808.42 1798.86,1807.97"/>
        <lane id=":42064105-AddedOffRampNode_0_4" index="4" allow="private emergency authority army vip passenger hov taxi bus coach delivery truck trailer motorcycle evehicle custom1 custom2" speed="27.78" length="8.16" shape="1807.03,1805.23 1799.04,1804.77"/>
    </edge>
    <edge id=":436210017_0" function="internal">
        <lane id=":436210017_0_0" index="0" allow="private emergency authority army vip passenger hov taxi bus coach delivery truck trailer motorcycle evehicle custom1 custom2" speed="26.39" length="3.88" shape="1763.94,2395.44 1764.00,2391.48"/>
        <lane id=":436210017_0_1" index="1" allow="private emergency authority army vip passenger hov taxi bus coach delivery truck trailer motorcycle evehicle custom1 custom2" speed="26.39" length="3.88" shape="1767.14,2395.40 1767.20,2391.60"/>
    </edge>
    <edge id=":436210017_2" function="internal">
        <lane id=":436210017_2_0" index="0" allow="private emergency authority army vip passenger hov taxi bus coach delivery truck trailer motorcycle evehicle custom1 custom2" speed="30.56" length="3.41" shape="1770.34,2395.36 1770.27,2391.71"/>
        <lane id=":436210017_2_1" index="1" allow="private emergency authority army vip passenger hov taxi bus coach delivery truck trailer motorcycle evehicle custom1 custom2" speed="30.56" length="3.41" shape="1773.54,2395.32 1773.48,2391.83"/>
        <lane id=":436210017_2_2" index="2" allow="private emergency authority army vip passenger hov taxi bus coach delivery truck trailer motorcycle evehicle custom1 custom2" speed="30.56" length="3.41" shape="1776.74,2395.28 1776.68,2391.95"/>
        <lane id=":436210017_2_3" index="3" allow="private emergency authority army vip passenger hov taxi bus coach delivery truck trailer motorcycle evehicle custom1 custom2" speed="30.56" length="3.41" shape="1779.94,2395.24 1779.88,2392.07"/>
    </edge>
    <edge id=":436210077_0" function="internal">
        <lane id=":436210077_0_0" index="0" allow="private emergency authority army vip passenger hov taxi bus coach delivery truck trailer motorcycle evehicle custom1 custom2" speed="27.78" length="3.74" shape="1297.64,1787.42 1296.68,1787.13 1296.13,1786.56 1295.58,1786.00 1294.62,1785.74"/>
        <lane id=":436210077_0_1" index="1" allow="private emergency authority army vip passenger hov taxi bus coach delivery truck trailer motorcycle evehicle custom1 custom2" speed="27.78" length="3.74" shape="1297.79,1784.23 1296.79,1783.93 1296.21,1783.36 1295.63,1782.80 1294.64,1782.54"/>
        <lane id=":436210077_0_2" index="2" allow="private emergency authority army vip passenger hov taxi bus coach delivery truck trailer motorcycle evehicle custom1 custom2" speed="27.78" length="3.74" shape="1297.93,1781.03 1296.91,1780.73 1296.30,1780.16 1295.69,1779.60 1294.66,1779.34"/>
        <lane id=":436210077_0_3" index="3" allow="private emergency authority army vip passenger hov taxi bus coach delivery truck trailer motorcycle evehicle custom1 custom2" speed="27.78" length="3.74" shape="1298.08,1777.83 1297.02,1777.54 1296.39,1776.96 1295.75,1776.40 1294.69,1776.14"/>
    </edge>
    <edge id=":436210077_4" function="internal">
        <lane id=":436210077_4_0" index="0" allow="private emergency authority army vip passenger hov taxi bus coach delivery truck trailer motorcycle evehicle custom1 custom2" speed="20.83" length="2.92" shape="1297.42,1792.19 1294.57,1792.14"/>
        <lane id=":436210077_4_1" index="1" allow="private emergency authority army vip passenger hov taxi bus coach delivery truck trailer motorcycle evehicle custom1 custom2" speed="20.83" length="2.92" shape="1297.57,1788.99 1294.59,1788.94"/>