<?xml version="1.0" encoding="UTF-8"?>

<!-- generated on 2024-12-02 10:41:38.230141 by main.py UNKNOWN
<configuration>
    <net-file value="/root/myvenv/nextpj/src/backend/data/scenario_1733136078/osm.net.xml.gz"/>
    <output-trip-file value="/root/myvenv/nextpj/src/backend/data/scenario_1733136078/osm.truck.trips.xml"/>
    <route-file value="/root/myvenv/nextpj/src/backend/data/scenario_1733136078/osm.truck.rou.xml"/>
    <prefix value="truck"/>
    <vehicle-class value="truck"/>
    <fringe-factor value="20.0"/>
    <validate value="True"/>
    <insertion-density value="80.0"/>
</configuration>
-->

<!-- generated on 2024-12-02 10:41:37 by Eclipse SUMO duarouter Version 1.21.0
<duarouterConfiguration xmlns:xsi="http://www.w3.org/2001/XMLSchema-instance" xsi:noNamespaceSchemaLocation="http://sumo.dlr.de/xsd/duarouterConfiguration.xsd">

    <input>
        <net-file value="/root/myvenv/nextpj/src/backend/data/scenario_1733136078/osm.net.xml.gz"/>
        <route-files value="/root/myvenv/nextpj/src/backend/data/scenario_1733136078/osm.truck.trips.xml"/>
    </input>

    <output>
        <output-file value="/root/myvenv/nextpj/src/backend/data/scenario_1733136078/osm.truck.trips.xml.tmp"/>
        <alternatives-output value="NUL"/>
        <write-trips value="true"/>
    </output>

    <time>
        <begin value="0.0"/>
        <end value="3600.0"/>
    </time>

    <report>
        <no-warnings value="true"/>
        <ignore-errors value="true"/>
        <no-step-log value="true"/>
    </report>

</duarouterConfiguration>
-->

<routes xmlns:xsi="http://www.w3.org/2001/XMLSchema-instance" xsi:noNamespaceSchemaLocation="http://sumo.dlr.de/xsd/routes_file.xsd">
    <vType id="truck_truck" vClass="truck"/>
    <trip id="truck2" type="truck_truck" depart="0.19" from="54490585#0" to="43947352#1"/>
    <trip id="truck5" type="truck_truck" depart="0.48" from="139865627" to="27523870"/>
    <trip id="truck6" type="truck_truck" depart="0.58" from="1030310860" to="1249788664"/>
    <trip id="truck11" type="truck_truck" depart="1.06" from="170300362" to="1153401503#1"/>
    <trip id="truck18" type="truck_truck" depart="1.74" from="706717749" to="37375978#1"/>
    <trip id="truck28" type="truck_truck" depart="2.71" from="1158381785" to="465114048-AddedOffRampEdge"/>
    <trip id="truck29" type="truck_truck" depart="2.81" from="1158381785" to="170324614"/>
    <trip id="truck38" type="truck_truck" depart="3.68" from="800876753#0" to="230526727"/>
    <trip id="truck40" type="truck_truck" depart="3.87" from="43944997" to="1250832434"/>
    <trip id="truck41" type="truck_truck" depart="3.97" from="43945006" to="70707216"/>
    <trip id="truck46" type="truck_truck" depart="4.45" from="620740370" to="171887696"/>
    <trip id="truck48" type="truck_truck" depart="4.64" from="978688502" to="277609540"/>
    <trip id="truck52" type="truck_truck" depart="5.03" from="154281583" to="375714594"/>
    <trip id="truck55" type="truck_truck" depart="5.32" from="754507517" to="1250832434"/>
    <trip id="truck60" type="truck_truck" depart="5.81" from="618806178" to="277610685"/>
    <trip id="truck64" type="truck_truck" depart="6.19" from="754507517" to="70237915"/>
    <trip id="truck67" type="truck_truck" depart="6.48" from="1058097563#1-AddedOnRampEdge" to="230526728"/>
    <trip id="truck70" type="truck_truck" depart="6.77" from="277610684" to="277610685"/>
    <trip id="truck71" type="truck_truck" depart="6.87" from="154281583" to="706717747#0"/>
    <trip id="truck72" type="truck_truck" depart="6.97" from="228330842" to="1249788664"/>
    <trip id="truck76" type="truck_truck" depart="7.35" from="259704144" to="277609540"/>
    <trip id="truck81" type="truck_truck" depart="7.84" from="139865627" to="767762481"/>
    <trip id="truck82" type="truck_truck" depart="7.93" from="754507516" to="1116479401"/>
    <trip id="truck83" type="truck_truck" depart="8.03" from="139939973" to="43945021"/>
    <trip id="truck84" type="truck_truck" depart="8.13" from="1251032985" to="1122898979"/>
    <trip id="truck88" type="truck_truck" depart="8.51" from="1058097564" to="171887696"/>
    <trip id="truck89" type="truck_truck" depart="8.61" from="228330842" to="230526727"/>
    <trip id="truck90" type="truck_truck" depart="8.71" from="54490585#0" to="43947348#0"/>
    <trip id="truck93" type="truck_truck" depart="9.00" from="754507516" to="1250826063"/>
    <trip id="truck95" type="truck_truck" depart="9.19" from="228330842" to="1250971022"/>
    <trip id="truck99" type="truck_truck" depart="9.58" from="978688503-AddedOffRampEdge" to="706717744"/>
    <trip id="truck101" type="truck_truck" depart="9.77" from="706717749" to="1153401503#1"/>
    <trip id="truck102" type="truck_truck" depart="9.87" from="326869083#1" to="1249788664"/>
    <trip id="truck107" type="truck_truck" depart="10.35" from="968537871#0" to="974897490-AddedOnRampEdge"/>
    <trip id="truck113" type="truck_truck" depart="10.93" from="347960410#0" to="706717745"/>
    <trip id="truck116" type="truck_truck" depart="11.22" from="43947348#1-AddedOnRampEdge" to="43947348#1-AddedOffRampEdge"/>
    <trip id="truck117" type="truck_truck" depart="11.32" from="139865627" to="1122898979"/>
    <trip id="truck118" type="truck_truck" depart="11.42" from="754507517" to="1250826063"/>
    <trip id="truck122" type="truck_truck" depart="11.80" from="1251032985" to="43948508"/>
    <trip id="truck123" type="truck_truck" depart="11.90" from="139939973" to="170330062"/>
    <trip id="truck130" type="truck_truck" depart="12.58" from="754507517" to="70707216"/>
    <trip id="truck134" type="truck_truck" depart="12.96" from="468231787-AddedOffRampEdge" to="1006864287#1"/>
    <trip id="truck140" type="truck_truck" depart="13.55" from="50981101" to="1249788664"/>
    <trip id="truck141" type="truck_truck" depart="13.64" from="43948499#0-AddedOffRampEdge" to="1250832434"/>
    <trip id="truck144" type="truck_truck" depart="13.93" from="228330842" to="1250832434"/>
    <trip id="truck145" type="truck_truck" depart="14.03" from="1006864288" to="563554160"/>
    <trip id="truck146" type="truck_truck" depart="14.13" from="43948503#1" to="1250832434"/>
    <trip id="truck148" type="truck_truck" depart="14.32" from="228330842" to="1006864287#1"/>
    <trip id="truck151" type="truck_truck" depart="14.61" from="706717749" to="347960408"/>
    <trip id="truck156" type="truck_truck" depart="15.09" from="139939973" to="1122898977"/>
    <trip id="truck157" type="truck_truck" depart="15.19" from="620740370" to="70707216"/>
    <trip id="truck158" type="truck_truck" depart="15.29" from="186177617" to="37375978#1"/>
    <trip id="truck162" type="truck_truck" depart="15.67" from="1019460046-AddedOnRampEdge" to="471373328"/>
    <trip id="truck166" type="truck_truck" depart="16.06" from="620740370" to="1122898977"/>
    <trip id="truck169" type="truck_truck" depart="16.35" from="277609538#1" to="170300056"/>
    <trip id="truck170" type="truck_truck" depart="16.45" from="620740370" to="1249788666"/>
    <trip id="truck176" type="truck_truck" depart="17.03" from="800876754" to="1122898977"/>
    <trip id="truck179" type="truck_truck" depart="17.32" from="1102263703" to="171887696"/>
    <trip id="truck183" type="truck_truck" depart="17.71" from="139939973" to="43948508"/>
    <trip id="truck186" type="truck_truck" depart="18.00" from="54490585#0" to="43945022"/>
    <trip id="truck187" type="truck_truck" depart="18.09" from="170324601" to="1116479401"/>
    <trip id="truck189" type="truck_truck" depart="18.29" from="170300361#0" to="706717744"/>
    <trip id="truck193" type="truck_truck" depart="18.67" from="1122898981" to="171887696"/>
    <trip id="truck196" type="truck_truck" depart="18.96" from="170300357" to="277610685"/>
    <trip id="truck199" type="truck_truck" depart="19.25" from="470810687" to="230526727"/>
    <trip id="truck201" type="truck_truck" depart="19.45" from="277610684" to="74267990-AddedOffRampEdge"/>
    <trip id="truck208" type="truck_truck" depart="20.12" from="139939973" to="230526728"/>
    <trip id="truck215" type="truck_truck" depart="20.80" from="1058097564" to="171887696"/>
    <trip id="truck223" type="truck_truck" depart="21.58" from="50981101" to="27523870"/>
    <trip id="truck224" type="truck_truck" depart="21.67" from="706717749" to="277610685"/>
    <trip id="truck225" type="truck_truck" depart="21.77" from="767762479-AddedOffRampEdge" to="491463047"/>
    <trip id="truck228" type="truck_truck" depart="22.06" from="618806178" to="277609540"/>
    <trip id="truck229" type="truck_truck" depart="22.16" from="43948499#0" to="1250832434"/>
    <trip id="truck231" type="truck_truck" depart="22.35" from="154281583" to="170300056"/>
    <trip id="truck233" type="truck_truck" depart="22.54" from="139865627" to="43948495#2-AddedOnRampEdge"/>
    <trip id="truck234" type="truck_truck" depart="22.64" from="50981101" to="1116479401"/>
    <trip id="truck235" type="truck_truck" depart="22.74" from="186177620" to="277610685"/>
    <trip id="truck236" type="truck_truck" depart="22.83" from="206489474" to="1249788664"/>
    <trip id="truck237" type="truck_truck" depart="22.93" from="228330842" to="767762481"/>
    <trip id="truck239" type="truck_truck" depart="23.12" from="754507516" to="549031726"/>
    <trip id="truck240" type="truck_truck" depart="23.22" from="171850631" to="1006864287#1"/>
    <trip id="truck241" type="truck_truck" depart="23.32" from="170324601" to="491463047"/>
    <trip id="truck243" type="truck_truck" depart="23.51" from="228330842" to="491463047"/>
    <trip id="truck248" type="truck_truck" depart="23.99" from="186177615" to="1153401503#1"/>
    <trip id="truck258" type="truck_truck" depart="24.96" from="139939973" to="1116479401"/>
    <trip id="truck260" type="truck_truck" depart="25.16" from="978688503-AddedOffRampEdge" to="170302313"/>
    <trip id="truck262" type="truck_truck" depart="25.35" from="465114053" to="491463047"/>
    <trip id="truck265" type="truck_truck" depart="25.64" from="1122898980" to="43945021"/>
    <trip id="truck267" type="truck_truck" depart="25.83" from="50981097" to="563554160"/>
    <trip id="truck271" type="truck_truck" depart="26.22" from="1102263703" to="1030310863"/>
    <trip id="truck274" type="truck_truck" depart="26.51" from="50981101" to="1116479401"/>
    <trip id="truck280" type="truck_truck" depart="27.09" from="228330842" to="170324614"/>
    <trip id="truck285" type="truck_truck" depart="27.57" from="50981101" to="171887696"/>
    <trip id="truck288" type="truck_truck" depart="27.86" from="37373854#0" to="230526728"/>
    <trip id="truck290" type="truck_truck" depart="28.06" from="154281583" to="706717744"/>
    <trip id="truck292" type="truck_truck" depart="28.25" from="754507517" to="1250826063"/>
    <trip id="truck293" type="truck_truck" depart="28.35" from="277610684" to="37375978#1"/>
    <trip id="truck298" type="truck_truck" depart="28.83" from="50981097" to="1250832434"/>
    <trip id="truck306" type="truck_truck" depart="29.61" from="43945004" to="230526728"/>
    <trip id="truck307" type="truck_truck" depart="29.70" from="361546030" to="171887696"/>
    <trip id="truck309" type="truck_truck" depart="29.90" from="50981097" to="1250832434"/>
    <trip id="truck310" type="truck_truck" depart="29.99" from="139939973" to="1122898979"/>
    <trip id="truck311" type="truck_truck" depart="30.09" from="1250971022" to="1122898979"/>
    <trip id="truck313" type="truck_truck" depart="30.28" from="1159944514#1" to="1249788664"/>
    <trip id="truck319" type="truck_truck" depart="30.86" from="361546030" to="1250832434"/>
    <trip id="truck321" type="truck_truck" depart="31.06" from="50981097" to="1122898979"/>
    <trip id="truck322" type="truck_truck" depart="31.15" from="754507516" to="27523870"/>
    <trip id="truck324" type="truck_truck" depart="31.35" from="277610684" to="186177617"/>
    <trip id="truck327" type="truck_truck" depart="31.64" from="70237915" to="170330062"/>
    <trip id="truck333" type="truck_truck" depart="32.22" from="620740370" to="1249788666"/>
    <trip id="truck334" type="truck_truck" depart="32.31" from="361546030" to="206489475"/>
    <trip id="truck341" type="truck_truck" depart="32.99" from="1158381785" to="1116479401"/>
    <trip id="truck342" type="truck_truck" depart="33.09" from="1006864288" to="206489475"/>
    <trip id="truck343" type="truck_truck" depart="33.19" from="43947348#1-AddedOffRampEdge" to="141726030"/>
    <trip id="truck344" type="truck_truck" depart="33.28" from="139865627" to="43948508"/>
    <trip id="truck345" type="truck_truck" depart="33.38" from="50981101" to="230526727"/>
    <trip id="truck355" type="truck_truck" depart="34.35" from="50981097" to="43948508"/>
    <trip id="truck361" type="truck_truck" depart="34.93" from="706717749" to="346005902-AddedOffRampEdge"/>
    <trip id="truck365" type="truck_truck" depart="35.31" from="277610684" to="402937995#1"/>
    <trip id="truck366" type="truck_truck" depart="35.41" from="800876753#0" to="1159944512"/>
    <trip id="truck376" type="truck_truck" depart="36.38" from="186177615" to="277609540"/>
    <trip id="truck378" type="truck_truck" depart="36.57" from="37376109" to="170931915"/>
    <trip id="truck391" type="truck_truck" depart="37.83" from="50981101" to="27523870"/>
    <trip id="truck392" type="truck_truck" depart="37.93" from="154281583" to="706717744"/>
    <trip id="truck395" type="truck_truck" depart="38.22" from="800876754" to="27523870"/>
    <trip id="truck402" type="truck_truck" depart="38.89" from="346577895" to="1153401503#1"/>
    <trip id="truck409" type="truck_truck" depart="39.57" from="54490585#1" to="43948508"/>
    <trip id="truck416" type="truck_truck" depart="40.25" from="361546030" to="230526727"/>
    <trip id="truck417" type="truck_truck" depart="40.34" from="50981101" to="170605263"/>
    <trip id="truck430" type="truck_truck" depart="41.60" from="754507516" to="206489379"/>
    <trip id="truck431" type="truck_truck" depart="41.70" from="50981097" to="767762481"/>
    <trip id="truck434" type="truck_truck" depart="41.99" from="1153401502#0" to="277609540-AddedOnRampEdge"/>
    <trip id="truck436" type="truck_truck" depart="42.18" from="1158381785" to="1116479401"/>
    <trip id="truck438" type="truck_truck" depart="42.38" from="139939973" to="767762481"/>
    <trip id="truck441" type="truck_truck" depart="42.67" from="1006864288" to="563554164"/>
    <trip id="truck447" type="truck_truck" depart="43.25" from="1251032985" to="170324614"/>
    <trip id="truck453" type="truck_truck" depart="43.83" from="50981097" to="491463047"/>
    <trip id="truck459" type="truck_truck" depart="44.41" from="492922776" to="43949840-AddedOnRampEdge"/>
    <trip id="truck461" type="truck_truck" depart="44.60" from="43948499#0" to="767762481"/>
    <trip id="truck464" type="truck_truck" depart="44.89" from="54490585#0" to="1120029189"/>
    <trip id="truck466" type="truck_truck" depart="45.09" from="1158381785" to="1122898979"/>
    <trip id="truck468" type="truck_truck" depart="45.28" from="361546030" to="767762481"/>
    <trip id="truck477" type="truck_truck" depart="46.15" from="170324601" to="563554164"/>
    <trip id="truck483" type="truck_truck" depart="46.73" from="1019460046-AddedOnRampEdge" to="70707216"/>
    <trip id="truck484" type="truck_truck" depart="46.83" from="43944997" to="767762481"/>
    <trip id="truck490" type="truck_truck" depart="47.41" from="1058097564" to="70707216"/>
    <trip id="truck497" type="truck_truck" depart="48.09" from="968537871#0" to="1041879011#1"/>
    <trip id="truck502" type="truck_truck" depart="48.57" from="170324601" to="170330062"/>
    <trip id="truck507" type="truck_truck" depart="49.05" from="620740370" to="1250826063"/>
    <trip id="truck508" type="truck_truck" depart="49.15" from="1122898980" to="326869050"/>
    <trip id="truck512" type="truck_truck" depart="49.54" from="1153401502#0" to="74267990-AddedOffRampEdge"/>
    <trip id="truck515" type="truck_truck" depart="49.83" from="139939973" to="1159944512"/>
    <trip id="truck517" type="truck_truck" depart="50.02" from="1006864288" to="563554164"/>
    <trip id="truck521" type="truck_truck" depart="50.41" from="54490585#1-AddedOnRampEdge" to="230526728"/>
    <trip id="truck523" type="truck_truck" depart="50.60" from="1117120987" to="27523870"/>
    <trip id="truck524" type="truck_truck" depart="50.70" from="968537871#0" to="1041879011#1"/>
    <trip id="truck526" type="truck_truck" depart="50.89" from="361546030" to="230526727"/>
    <trip id="truck529" type="truck_truck" depart="51.18" from="50981097" to="27523870"/>
    <trip id="truck530" type="truck_truck" depart="51.28" from="800876753#0" to="1116479401"/>
    <trip id="truck535" type="truck_truck" depart="51.76" from="361546030" to="230526727"/>
    <trip id="truck536" type="truck_truck" depart="51.86" from="43947369#1-AddedOnRampEdge" to="1122898977"/>
    <trip id="truck539" type="truck_truck" depart="52.15" from="50981101" to="1249788664"/>
    <trip id="truck542" type="truck_truck" depart="52.44" from="206489474" to="1122897134"/>
    <trip id="truck543" type="truck_truck" depart="52.54" from="228330842" to="43944997-AddedOnRampEdge"/>
    <trip id="truck545" type="truck_truck" depart="52.73" from="800876754" to="1116479401"/>
    <trip id="truck547" type="truck_truck" depart="52.92" from="1058097564" to="491463047"/>
    <trip id="truck551" type="truck_truck" depart="53.31" from="170324601" to="43944997-AddedOnRampEdge"/>
    <trip id="truck559" type="truck_truck" depart="54.08" from="43945004" to="586438409"/>
    <trip id="truck567" type="truck_truck" depart="54.86" from="754507516" to="326869050"/>
    <trip id="truck570" type="truck_truck" depart="55.15" from="54490585#1-AddedOnRampEdge" to="1249788664"/>
    <trip id="truck580" type="truck_truck" depart="56.12" from="228330842" to="141726030"/>
    <trip id="truck585" type="truck_truck" depart="56.60" from="1251032985" to="1122898979"/>
    <trip id="truck587" type="truck_truck" depart="56.79" from="1006864288" to="491463047"/>
    <trip id="truck588" type="truck_truck" depart="56.89" from="1158381785" to="170324614"/>
    <trip id="truck589" type="truck_truck" depart="56.99" from="50981101" to="27523870"/>
    <trip id="truck595" type="truck_truck" depart="57.57" from="50981101" to="171887695"/>
    <trip id="truck598" type="truck_truck" depart="57.86" from="43948499#0" to="70237915"/>
    <trip id="truck607" type="truck_truck" depart="58.73" from="54490585#0" to="620740374"/>
    <trip id="truck626" type="truck_truck" depart="60.57" from="42064105" to="563554164"/>
    <trip id="truck631" type="truck_truck" depart="61.05" from="1058097564" to="70712256"/>
    <trip id="truck635" type="truck_truck" depart="61.44" from="259704144" to="277609540"/>
    <trip id="truck636" type="truck_truck" depart="61.53" from="1156581474#0" to="170324614"/>
    <trip id="truck642" type="truck_truck" depart="62.11" from="54490585#0" to="41844004"/>
    <trip id="truck645" type="truck_truck" depart="62.40" from="1153401502#0" to="170302313"/>
    <trip id="truck663" type="truck_truck" depart="64.15" from="170931915" to="1153401503#1"/>
    <trip id="truck673" type="truck_truck" depart="65.11" from="968537871#0" to="974897490"/>
    <trip id="truck679" type="truck_truck" depart="65.69" from="754507516" to="326869050"/>
    <trip id="truck685" type="truck_truck" depart="66.27" from="139865627" to="230526727"/>
    <trip id="truck697" type="truck_truck" depart="67.44" from="706717749" to="277610685"/>
    <trip id="truck701" type="truck_truck" depart="67.82" from="228330842" to="563554164"/>
    <trip id="truck710" type="truck_truck" depart="68.69" from="361546030" to="27523870"/>
    <trip id="truck712" type="truck_truck" depart="68.89" from="171850631" to="230526727"/>
    <trip id="truck714" type="truck_truck" depart="69.08" from="139939973" to="1006864287#1"/>
    <trip id="truck722" type="truck_truck" depart="69.85" from="43948499#0" to="620740374"/>
    <trip id="truck726" type="truck_truck" depart="70.24" from="1041879013#0" to="968537874#1"/>
    <trip id="truck730" type="truck_truck" depart="70.63" from="170324601" to="563554160"/>
    <trip id="truck733" type="truck_truck" depart="70.92" from="754507517" to="491463047"/>
    <trip id="truck734" type="truck_truck" depart="71.01" from="754507517" to="170324614"/>
    <trip id="truck737" type="truck_truck" depart="71.31" from="361546030" to="563554164"/>
    <trip id="truck738" type="truck_truck" depart="71.40" from="54490585#0" to="1116479401"/>
    <trip id="truck747" type="truck_truck" depart="72.27" from="974897487#0" to="968537874#1"/>
    <trip id="truck749" type="truck_truck" depart="72.47" from="170324601" to="563554164"/>
    <trip id="truck751" type="truck_truck" depart="72.66" from="1153401502#0" to="37375978#1"/>
    <trip id="truck754" type="truck_truck" depart="72.95" from="170324601" to="170324614"/>
    <trip id="truck760" type="truck_truck" depart="73.53" from="139939973" to="1122898977"/>
    <trip id="truck761" type="truck_truck" depart="73.63" from="54490585#0" to="27523870"/>
    <trip id="truck768" type="truck_truck" depart="74.30" from="800876753#0" to="206489379-AddedOnRampEdge"/>
    <trip id="truck769" type="truck_truck" depart="74.40" from="1058097564" to="43947365-AddedOnRampEdge"/>
    <trip id="truck770" type="truck_truck" depart="74.50" from="706717749" to="170300056"/>
    <trip id="truck775" type="truck_truck" depart="74.98" from="620740370" to="27523870"/>
    <trip id="truck778" type="truck_truck" depart="75.27" from="1030310860" to="326869050"/>
    <trip id="truck779" type="truck_truck" depart="75.37" from="170324601" to="563554164"/>
    <trip id="truck782" type="truck_truck" depart="75.66" from="978688503-AddedOffRampEdge" to="43949840"/>
    <trip id="truck783" type="truck_truck" depart="75.76" from="361546030" to="563554160"/>
    <trip id="truck790" type="truck_truck" depart="76.43" from="228330842" to="767762481"/>
    <trip id="truck792" type="truck_truck" depart="76.63" from="1153401502#0" to="1153401503#1"/>
    <trip id="truck798" type="truck_truck" depart="77.21" from="170300361#0" to="277610685"/>
    <trip id="truck811" type="truck_truck" depart="78.46" from="50981097" to="141726030"/>
    <trip id="truck815" type="truck_truck" depart="78.85" from="170300361#0" to="43949840"/>
    <trip id="truck833" type="truck_truck" depart="80.59" from="468231787-AddedOffRampEdge" to="230526728"/>
    <trip id="truck835" type="truck_truck" depart="80.79" from="228330842" to="70707216"/>
    <trip id="truck837" type="truck_truck" depart="80.98" from="170324601" to="170330062"/>
    <trip id="truck845" type="truck_truck" depart="81.75" from="800876754" to="491463047"/>
    <trip id="truck846" type="truck_truck" depart="81.85" from="1251032985" to="27523870"/>
    <trip id="truck848" type="truck_truck" depart="82.04" from="1153401502#0" to="170300057#1"/>
    <trip id="truck853" type="truck_truck" depart="82.53" from="54490585#0" to="141726030"/>
    <trip id="truck854" type="truck_truck" depart="82.62" from="170300362" to="66420910"/>
    <trip id="truck855" type="truck_truck" depart="82.72" from="361546030" to="43948508"/>
    <trip id="truck857" type="truck_truck" depart="82.92" from="170324601" to="43947348#1"/>
    <trip id="truck862" type="truck_truck" depart="83.40" from="620740370" to="563554160"/>
    <trip id="truck866" type="truck_truck" depart="83.79" from="706717749" to="1153401503#0"/>
    <trip id="truck877" type="truck_truck" depart="84.85" from="1158381785" to="767762481"/>
    <trip id="truck879" type="truck_truck" depart="85.04" from="618806178" to="43949840-AddedOnRampEdge"/>
    <trip id="truck885" type="truck_truck" depart="85.62" from="1251032985" to="43948508"/>
    <trip id="truck897" type="truck_truck" depart="86.79" from="50981097" to="1122898979"/>
    <trip id="truck899" type="truck_truck" depart="86.98" from="139939973" to="43945021"/>
    <trip id="truck902" type="truck_truck" depart="87.27" from="50981101" to="1122898977"/>
    <trip id="truck906" type="truck_truck" depart="87.66" from="754507517" to="230526728"/>
    <trip id="truck912" type="truck_truck" depart="88.24" from="800876753#0" to="1159944512"/>
    <trip id="truck913" type="truck_truck" depart="88.33" from="754507517" to="1159944512"/>
    <trip id="truck915" type="truck_truck" depart="88.53" from="171850631" to="27523870"/>
    <trip id="truck926" type="truck_truck" depart="89.59" from="1161614809#1" to="471373328"/>
    <trip id="truck929" type="truck_truck" depart="89.88" from="754507516" to="70707216"/>
    <trip id="truck930" type="truck_truck" depart="89.98" from="706717747#1-AddedOffRampEdge" to="277609540"/>
    <trip id="truck932" type="truck_truck" depart="90.17" from="1159944514#0" to="1122898984"/>
    <trip id="truck936" type="truck_truck" depart="90.56" from="170300361#0" to="459512011#1"/>
    <trip id="truck941" type="truck_truck" depart="91.04" from="754507517" to="43948508"/>
    <trip id="truck944" type="truck_truck" depart="91.33" from="43948499#0" to="1249788666"/>
    <trip id="truck948" type="truck_truck" depart="91.72" from="277610684" to="277610685"/>
    <trip id="truck950" type="truck_truck" depart="91.91" from="139939973" to="491463047"/>
    <trip id="truck951" type="truck_truck" depart="92.01" from="754507516" to="1116479401"/>
    <trip id="truck956" type="truck_truck" depart="92.49" from="1153401502#0" to="170300057#1"/>
    <trip id="truck957" type="truck_truck" depart="92.59" from="361546030" to="1122898977"/>
    <trip id="truck967" type="truck_truck" depart="93.56" from="1041879042" to="974897490"/>
    <trip id="truck968" type="truck_truck" depart="93.65" from="800876754" to="1116479401"/>
    <trip id="truck970" type="truck_truck" depart="93.85" from="206488705" to="563554160"/>
    <trip id="truck974" type="truck_truck" depart="94.24" from="754507516" to="767762481"/>
    <trip id="truck975" type="truck_truck" depart="94.33" from="170605269" to="43947366"/>
    <trip id="truck976" type="truck_truck" depart="94.43" from="492922776" to="277610685"/>
    <trip id="truck979" type="truck_truck" depart="94.72" from="361546030" to="465114042"/>
    <trip id="truck980" type="truck_truck" depart="94.82" from="139865627" to="1006864287#1"/>
    <trip id="truck982" type="truck_truck" depart="95.01" from="492922776" to="277610685"/>
    <trip id="truck983" type="truck_truck" depart="95.11" from="361546030" to="620740374"/>
    <trip id="truck986" type="truck_truck" depart="95.40" from="54490585#0" to="1122898977"/>
    <trip id="truck1002" type="truck_truck" depart="96.94" from="1041879042" to="968537874#1"/>
    <trip id="truck1003" type="truck_truck" depart="97.04" from="754507517" to="767762481"/>
    <trip id="truck1004" type="truck_truck" depart="97.14" from="43948499#0" to="171887696"/>
    <trip id="truck1006" type="truck_truck" depart="97.33" from="946728158" to="43947347#1"/>
    <trip id="truck1010" type="truck_truck" depart="97.72" from="277610684" to="706717744"/>
    <trip id="truck1012" type="truck_truck" depart="97.91" from="620741529" to="767762481"/>
    <trip id="truck1014" type="truck_truck" depart="98.11" from="43210976" to="1122898979"/>
    <trip id="truck1018" type="truck_truck" depart="98.49" from="54490585#0" to="1159944512"/>
    <trip id="truck1022" type="truck_truck" depart="98.88" from="54490585#0" to="326869050"/>
    <trip id="truck1023" type="truck_truck" depart="98.98" from="277610684" to="706717746"/>
    <trip id="truck1029" type="truck_truck" depart="99.56" from="1251032985" to="767762481"/>
    <trip id="truck1030" type="truck_truck" depart="99.65" from="406802122" to="563554160"/>
    <trip id="truck1032" type="truck_truck" depart="99.85" from="170324601" to="1250832434"/>
    <trip id="truck1035" type="truck_truck" depart="100.14" from="277610684" to="706717744"/>
    <trip id="truck1036" type="truck_truck" depart="100.23" from="800876753#0" to="170324614"/>
    <trip id="truck1040" type="truck_truck" depart="100.62" from="43945004" to="171887695"/>
    <trip id="truck1041" type="truck_truck" depart="100.72" from="1153401502#0" to="170300057#1"/>
    <trip id="truck1051" type="truck_truck" depart="101.68" from="1041879029#2-AddedOnRampEdge" to="1041879011#1"/>
    <trip id="truck1055" type="truck_truck" depart="102.07" from="139865627" to="43948508"/>
    <trip id="truck1056" type="truck_truck" depart="102.17" from="1006864288" to="27523870"/>
    <trip id="truck1065" type="truck_truck" depart="103.04" from="800876753#0" to="1122898977"/>
    <trip id="truck1069" type="truck_truck" depart="103.43" from="171850631" to="170324614"/>
    <trip id="truck1077" type="truck_truck" depart="104.20" from="1158381785" to="27523870"/>
    <trip id="truck1078" type="truck_truck" depart="104.30" from="228330842" to="563554160"/>
    <trip id="truck1082" type="truck_truck" depart="104.68" from="754507516" to="70707216"/>
    <trip id="truck1088" type="truck_truck" depart="105.26" from="43945021" to="491463047"/>
    <trip id="truck1089" type="truck_truck" depart="105.36" from="50981101" to="170330062"/>
    <trip id="truck1092" type="truck_truck" depart="105.65" from="171850631" to="70707216"/>
    <trip id="truck1095" type="truck_truck" depart="105.94" from="54490585#0" to="27523870"/>
    <trip id="truck1102" type="truck_truck" depart="106.62" from="346577895-AddedOffRampEdge" to="170302313"/>
    <trip id="truck1114" type="truck_truck" depart="107.78" from="42064105" to="170601193"/>
    <trip id="truck1122" type="truck_truck" depart="108.55" from="171850631" to="1122898981"/>
    <trip id="truck1125" type="truck_truck" depart="108.84" from="228330842" to="230526728"/>
    <trip id="truck1131" type="truck_truck" depart="109.42" from="43948499#0" to="563554164"/>
    <trip id="truck1137" type="truck_truck" depart="110.01" from="968537871#0" to="968537875#1"/>