<?xml version="1.0" encoding="UTF-8"?>

<!-- generated on 2024-12-02 10:41:40.886382 by main.py UNKNOWN
<configuration>
    <net-file value="/root/myvenv/nextpj/src/backend/data/scenario_1733136078/osm.net.xml.gz"/>
    <output-trip-file value="/root/myvenv/nextpj/src/backend/data/scenario_1733136078/osm.bus.trips.xml"/>
    <route-file value="/root/myvenv/nextpj/src/backend/data/scenario_1733136078/osm.bus.rou.xml"/>
    <prefix value="bus"/>
    <vehicle-class value="bus"/>
    <fringe-factor value="17.0"/>
    <validate value="True"/>
    <insertion-density value="90.0"/>
</configuration>
-->

<!-- generated on 2024-12-02 10:41:39 by Eclipse SUMO duarouter Version 1.21.0
<duarouterConfiguration xmlns:xsi="http://www.w3.org/2001/XMLSchema-instance" xsi:noNamespaceSchemaLocation="http://sumo.dlr.de/xsd/duarouterConfiguration.xsd">

    <input>
        <net-file value="/root/myvenv/nextpj/src/backend/data/scenario_1733136078/osm.net.xml.gz"/>
        <route-files value="/root/myvenv/nextpj/src/backend/data/scenario_1733136078/osm.bus.trips.xml"/>
    </input>

    <output>
        <output-file value="/root/myvenv/nextpj/src/backend/data/scenario_1733136078/osm.bus.trips.xml.tmp"/>
        <alternatives-output value="NUL"/>
        <write-trips value="true"/>
    </output>

    <time>
        <begin value="0.0"/>
        <end value="3600.0"/>
    </time>

    <report>
        <no-warnings value="true"/>
        <ignore-errors value="true"/>
        <no-step-log value="true"/>
    </report>

</duarouterConfiguration>
-->

<routes xmlns:xsi="http://www.w3.org/2001/XMLSchema-instance" xsi:noNamespaceSchemaLocation="http://sumo.dlr.de/xsd/routes_file.xsd">
    <vType id="bus_bus" vClass="bus"/>
    <trip id="bus2" type="bus_bus" depart="0.17" from="54490585#0" to="43947353"/>
    <trip id="bus5" type="bus_bus" depart="0.43" from="139865627" to="27523870"/>
    <trip id="bus7" type="bus_bus" depart="0.60" from="459512011#3-AddedOnRampEdge" to="277610685"/>
    <trip id="bus11" type="bus_bus" depart="0.95" from="170300362" to="1153401503#1"/>
    <trip id="bus14" type="bus_bus" depart="1.20" from="706717749" to="37375978#1"/>
    <trip id="bus18" type="bus_bus" depart="1.55" from="706717747#1-AddedOffRampEdge" to="37375978#1"/>
    <trip id="bus24" type="bus_bus" depart="2.06" from="43948499#0" to="170324607"/>
    <trip id="bus25" type="bus_bus" depart="2.15" from="170601197#0" to="1249788664"/>
    <trip id="bus38" type="bus_bus" depart="3.27" from="800876753#0" to="230526727"/>
    <trip id="bus40" type="bus_bus" depart="3.44" from="43944996" to="1250832434"/>
    <trip id="bus41" type="bus_bus" depart="3.53" from="43945006" to="70707216"/>
    <trip id="bus43" type="bus_bus" depart="3.70" from="978688502-AddedOnRampEdge" to="277609540"/>
    <trip id="bus46" type="bus_bus" depart="3.96" from="620740370" to="171887696"/>
    <trip id="bus48" type="bus_bus" depart="4.13" from="978688502" to="277609814#1"/>
    <trip id="bus51" type="bus_bus" depart="4.39" from="492922776" to="277610685"/>
    <trip id="bus52" type="bus_bus" depart="4.47" from="154281583" to="375714594"/>
    <trip id="bus55" type="bus_bus" depart="4.73" from="754507516" to="1250832434"/>
    <trip id="bus60" type="bus_bus" depart="5.16" from="618806178" to="277610685"/>
    <trip id="bus67" type="bus_bus" depart="5.76" from="1058097563#1-AddedOnRampEdge" to="230526728"/>
    <trip id="bus71" type="bus_bus" depart="6.11" from="154281583" to="706717747#0"/>
    <trip id="bus72" type="bus_bus" depart="6.19" from="228330842" to="1249788664"/>
    <trip id="bus76" type="bus_bus" depart="6.54" from="259704144" to="277609540"/>
    <trip id="bus81" type="bus_bus" depart="6.97" from="139865627" to="767762481"/>
    <trip id="bus82" type="bus_bus" depart="7.05" from="754507516" to="1116479401"/>
    <trip id="bus83" type="bus_bus" depart="7.14" from="139865627" to="43947347#1"/>
    <trip id="bus88" type="bus_bus" depart="7.57" from="1058097564" to="171887696"/>
    <trip id="bus89" type="bus_bus" depart="7.65" from="228330842" to="230526727"/>
    <trip id="bus90" type="bus_bus" depart="7.74" from="54490585#0" to="43947348#1-AddedOffRampEdge"/>
    <trip id="bus93" type="bus_bus" depart="8.00" from="754507516" to="1250826063"/>
    <trip id="bus95" type="bus_bus" depart="8.17" from="228330842" to="1250971022-AddedOffRampEdge"/>
    <trip id="bus99" type="bus_bus" depart="8.51" from="978688503-AddedOffRampEdge" to="706717744"/>
    <trip id="bus101" type="bus_bus" depart="8.69" from="706717749" to="1153401503#1"/>
    <trip id="bus107" type="bus_bus" depart="9.20" from="968537871#0" to="974897490-AddedOnRampEdge"/>
    <trip id="bus113" type="bus_bus" depart="9.72" from="347960410#0" to="706717745"/>
    <trip id="bus116" type="bus_bus" depart="9.98" from="43947348#1-AddedOffRampEdge" to="43947352#1"/>
    <trip id="bus117" type="bus_bus" depart="10.06" from="139865627" to="1122898978"/>
    <trip id="bus118" type="bus_bus" depart="10.15" from="754507517" to="1250826063"/>
    <trip id="bus123" type="bus_bus" depart="10.58" from="139939973" to="170330062"/>
    <trip id="bus130" type="bus_bus" depart="11.18" from="754507517" to="70707214"/>
    <trip id="bus134" type="bus_bus" depart="11.52" from="465114042" to="1006864287#1"/>
    <trip id="bus137" type="bus_bus" depart="11.78" from="1122898987" to="1122898977"/>
    <trip id="bus139" type="bus_bus" depart="11.95" from="154281583" to="37375978#1"/>
    <trip id="bus140" type="bus_bus" depart="12.04" from="50981101" to="1249788664"/>
    <trip id="bus141" type="bus_bus" depart="12.13" from="43948499#0" to="1250832434"/>
    <trip id="bus144" type="bus_bus" depart="12.38" from="228330842" to="1250832434"/>
    <trip id="bus145" type="bus_bus" depart="12.47" from="1006864288" to="563554160"/>
    <trip id="bus146" type="bus_bus" depart="12.56" from="43948499#0-AddedOffRampEdge" to="1250832434"/>
    <trip id="bus147" type="bus_bus" depart="12.64" from="54490585#0" to="326869050"/>
    <trip id="bus148" type="bus_bus" depart="12.73" from="228330842" to="1006864287#1"/>
    <trip id="bus151" type="bus_bus" depart="12.99" from="706717749" to="347960408"/>
    <trip id="bus156" type="bus_bus" depart="13.42" from="139939973" to="1122898977"/>
    <trip id="bus157" type="bus_bus" depart="13.50" from="620740370" to="70707216"/>
    <trip id="bus158" type="bus_bus" depart="13.59" from="186177620" to="37375978#1"/>
    <trip id="bus162" type="bus_bus" depart="13.93" from="1019460046-AddedOnRampEdge" to="470810687-AddedOffRampEdge"/>
    <trip id="bus166" type="bus_bus" depart="14.28" from="620740370" to="1122898977"/>
    <trip id="bus170" type="bus_bus" depart="14.62" from="620740370" to="1249788666"/>
    <trip id="bus171" type="bus_bus" depart="14.71" from="1019460046" to="1159944512"/>
    <trip id="bus174" type="bus_bus" depart="14.96" from="43948503#2" to="170330062"/>
    <trip id="bus183" type="bus_bus" depart="15.74" from="139939973" to="43948508"/>
    <trip id="bus184" type="bus_bus" depart="15.82" from="1006864288" to="946728157"/>
    <trip id="bus186" type="bus_bus" depart="16.00" from="54490585#0" to="43947348#0"/>
    <trip id="bus187" type="bus_bus" depart="16.08" from="170324601" to="1116479401"/>
    <trip id="bus189" type="bus_bus" depart="16.25" from="170300361#0" to="706717744"/>
    <trip id="bus193" type="bus_bus" depart="16.60" from="1122898980" to="171887696"/>
    <trip id="bus196" type="bus_bus" depart="16.86" from="170300361#0" to="277610685"/>
    <trip id="bus199" type="bus_bus" depart="17.11" from="465114048" to="230526727"/>
    <trip id="bus201" type="bus_bus" depart="17.29" from="277610684" to="74267990-AddedOffRampEdge"/>
    <trip id="bus205" type="bus_bus" depart="17.63" from="660731151" to="491463047"/>
    <trip id="bus208" type="bus_bus" depart="17.89" from="139939973" to="230526728"/>
    <trip id="bus223" type="bus_bus" depart="19.18" from="50981101" to="27523870"/>
    <trip id="bus224" type="bus_bus" depart="19.26" from="706717747#2" to="277610685"/>
    <trip id="bus225" type="bus_bus" depart="19.35" from="767762479-AddedOffRampEdge" to="491463047"/>
    <trip id="bus228" type="bus_bus" depart="19.61" from="618806178" to="277609540"/>
    <trip id="bus229" type="bus_bus" depart="19.69" from="43948499#0" to="1250832434"/>
    <trip id="bus231" type="bus_bus" depart="19.87" from="154281583" to="170300057#0"/>
    <trip id="bus233" type="bus_bus" depart="20.04" from="139865627" to="43948495#2-AddedOnRampEdge"/>
    <trip id="bus236" type="bus_bus" depart="20.30" from="206489474" to="1249788664"/>
    <trip id="bus237" type="bus_bus" depart="20.38" from="228330842" to="767762481"/>
    <trip id="bus240" type="bus_bus" depart="20.64" from="171850631" to="1006864287#1"/>
    <trip id="bus241" type="bus_bus" depart="20.73" from="170324601" to="491463047"/>
    <trip id="bus243" type="bus_bus" depart="20.90" from="228330842" to="491463047"/>
    <trip id="bus244" type="bus_bus" depart="20.98" from="402937995#0" to="37375978#1"/>
    <trip id="bus248" type="bus_bus" depart="21.33" from="186177616" to="1153401503#1"/>
    <trip id="bus257" type="bus_bus" depart="22.10" from="54603770" to="66420935-AddedOnRampEdge"/>
    <trip id="bus258" type="bus_bus" depart="22.19" from="139939973" to="1116479401"/>
    <trip id="bus260" type="bus_bus" depart="22.36" from="978688503-AddedOffRampEdge" to="170302313"/>
    <trip id="bus262" type="bus_bus" depart="22.53" from="461214773#0" to="491463047"/>
    <trip id="bus269" type="bus_bus" depart="23.13" from="54490585#1" to="1122898977"/>
    <trip id="bus271" type="bus_bus" depart="23.31" from="1102263703" to="1030310863"/>
    <trip id="bus274" type="bus_bus" depart="23.56" from="50981101" to="1116479401"/>
    <trip id="bus280" type="bus_bus" depart="24.08" from="228330842" to="170324614"/>
    <trip id="bus289" type="bus_bus" depart="24.85" from="228330842" to="465114048-AddedOffRampEdge"/>
    <trip id="bus290" type="bus_bus" depart="24.94" from="154281583" to="706717744"/>
    <trip id="bus292" type="bus_bus" depart="25.11" from="754507517" to="1250826063"/>
    <trip id="bus293" type="bus_bus" depart="25.20" from="277610684" to="37375978#1"/>
    <trip id="bus298" type="bus_bus" depart="25.63" from="50981097" to="1250832434"/>
    <trip id="bus306" type="bus_bus" depart="26.32" from="43945004" to="230526728"/>
    <trip id="bus307" type="bus_bus" depart="26.40" from="361546030" to="171887696"/>
    <trip id="bus309" type="bus_bus" depart="26.57" from="50981097" to="1250832434"/>
    <trip id="bus310" type="bus_bus" depart="26.66" from="139939973" to="1122898979"/>
    <trip id="bus313" type="bus_bus" depart="26.92" from="1159944513" to="1249788664"/>
    <trip id="bus319" type="bus_bus" depart="27.43" from="361546030" to="1250832434"/>
    <trip id="bus321" type="bus_bus" depart="27.61" from="50981097" to="1122898979"/>
    <trip id="bus322" type="bus_bus" depart="27.69" from="754507516" to="27523870"/>
    <trip id="bus326" type="bus_bus" depart="28.04" from="946728158" to="230526728"/>
    <trip id="bus333" type="bus_bus" depart="28.64" from="620740370" to="1249788666"/>
    <trip id="bus334" type="bus_bus" depart="28.72" from="361546030" to="230526727"/>
    <trip id="bus341" type="bus_bus" depart="29.33" from="1158381785" to="1116479401"/>
    <trip id="bus342" type="bus_bus" depart="29.41" from="1006864288" to="230526727"/>
    <trip id="bus343" type="bus_bus" depart="29.50" from="43947348#1" to="141726030"/>
    <trip id="bus344" type="bus_bus" depart="29.58" from="139865627" to="43948508"/>
    <trip id="bus345" type="bus_bus" depart="29.67" from="50981097" to="230526727"/>
    <trip id="bus355" type="bus_bus" depart="30.53" from="50981097" to="43948506"/>
    <trip id="bus361" type="bus_bus" depart="31.05" from="706717749" to="346577897"/>
    <trip id="bus366" type="bus_bus" depart="31.48" from="800876753#0" to="1159944512"/>
    <trip id="bus376" type="bus_bus" depart="32.34" from="186177616" to="277609540"/>
    <trip id="bus380" type="bus_bus" depart="32.68" from="569158514#1" to="375714594"/>
    <trip id="bus385" type="bus_bus" depart="33.11" from="43947369#1-AddedOnRampEdge" to="1250826063"/>
    <trip id="bus387" type="bus_bus" depart="33.28" from="406802122" to="1120029190"/>
    <trip id="bus392" type="bus_bus" depart="33.71" from="154281583" to="706717744"/>
    <trip id="bus409" type="bus_bus" depart="35.17" from="54490585#0" to="43948508"/>
    <trip id="bus416" type="bus_bus" depart="35.78" from="361546030" to="230526727"/>
    <trip id="bus424" type="bus_bus" depart="36.46" from="50981101" to="491463050"/>
    <trip id="bus428" type="bus_bus" depart="36.81" from="54490585#0" to="171887696"/>
    <trip id="bus434" type="bus_bus" depart="37.32" from="1153401502#0" to="277610685"/>
    <trip id="bus436" type="bus_bus" depart="37.50" from="1158381785" to="1116479401"/>
    <trip id="bus438" type="bus_bus" depart="37.67" from="139939973" to="767762481"/>
    <trip id="bus441" type="bus_bus" depart="37.93" from="1006864288" to="563554164"/>
    <trip id="bus445" type="bus_bus" depart="38.27" from="43948499#1" to="171887696"/>
    <trip id="bus459" type="bus_bus" depart="39.47" from="492922776" to="43949840-AddedOnRampEdge"/>
    <trip id="bus461" type="bus_bus" depart="39.65" from="43948499#0" to="767762479-AddedOffRampEdge"/>
    <trip id="bus464" type="bus_bus" depart="39.90" from="54490585#0" to="1120029183"/>
    <trip id="bus466" type="bus_bus" depart="40.08" from="1158381785" to="1122898979"/>
    <trip id="bus468" type="bus_bus" depart="40.25" from="361546030" to="767762481"/>
    <trip id="bus477" type="bus_bus" depart="41.02" from="170324601" to="563554164"/>
    <trip id="bus483" type="bus_bus" depart="41.54" from="1019460046-AddedOnRampEdge" to="70707216"/>
    <trip id="bus484" type="bus_bus" depart="41.62" from="43944996" to="767762481"/>
    <trip id="bus486" type="bus_bus" depart="41.80" from="70237915" to="767762481"/>
    <trip id="bus490" type="bus_bus" depart="42.14" from="1058097564" to="70707216"/>
    <trip id="bus497" type="bus_bus" depart="42.74" from="968537871#0" to="1041879011#1"/>
    <trip id="bus502" type="bus_bus" depart="43.17" from="170324601" to="170330062"/>
    <trip id="bus503" type="bus_bus" depart="43.26" from="1161614809#1-AddedOnRampEdge" to="1122898979"/>
    <trip id="bus506" type="bus_bus" depart="43.52" from="43947352#1" to="1006864292#1-AddedOnRampEdge"/>
    <trip id="bus507" type="bus_bus" depart="43.60" from="620740370" to="1250826063"/>
    <trip id="bus512" type="bus_bus" depart="44.03" from="1153401502#0" to="74267990"/>
    <trip id="bus515" type="bus_bus" depart="44.29" from="139939973" to="1159944499"/>
    <trip id="bus517" type="bus_bus" depart="44.46" from="1006864288" to="563554164"/>
    <trip id="bus521" type="bus_bus" depart="44.81" from="54490585#0" to="230526728"/>
    <trip id="bus522" type="bus_bus" depart="44.89" from="618806178" to="277609540"/>
    <trip id="bus523" type="bus_bus" depart="44.98" from="1117120987" to="27523870"/>
    <trip id="bus524" type="bus_bus" depart="45.06" from="968537871#0" to="1041879011#1"/>
    <trip id="bus526" type="bus_bus" depart="45.24" from="361546030" to="230526727"/>
    <trip id="bus530" type="bus_bus" depart="45.58" from="800876753#0" to="1116479401"/>
    <trip id="bus535" type="bus_bus" depart="46.01" from="361546030" to="230526727"/>
    <trip id="bus538" type="bus_bus" depart="46.27" from="461214773#0" to="549031727"/>
    <trip id="bus539" type="bus_bus" depart="46.35" from="50981101" to="1249788664"/>
    <trip id="bus543" type="bus_bus" depart="46.70" from="228330842" to="43945019"/>
    <trip id="bus545" type="bus_bus" depart="46.87" from="800876754" to="1116479401"/>
    <trip id="bus547" type="bus_bus" depart="47.04" from="1058097564" to="471373328"/>
    <trip id="bus551" type="bus_bus" depart="47.39" from="170324601" to="43945019"/>
    <trip id="bus556" type="bus_bus" depart="47.82" from="465114053" to="1249788666"/>
    <trip id="bus567" type="bus_bus" depart="48.76" from="754507516" to="326869050"/>
    <trip id="bus570" type="bus_bus" depart="49.02" from="54490585#0" to="1249788664"/>
    <trip id="bus575" type="bus_bus" depart="49.45" from="1153401502#1" to="37375978#1"/>
    <trip id="bus577" type="bus_bus" depart="49.62" from="470810687-AddedOffRampEdge" to="230526728"/>
    <trip id="bus580" type="bus_bus" depart="49.88" from="228330842" to="141726030"/>
    <trip id="bus587" type="bus_bus" depart="50.48" from="1006864288" to="491463047"/>
    <trip id="bus588" type="bus_bus" depart="50.57" from="1158381785" to="170324614"/>
    <trip id="bus589" type="bus_bus" depart="50.65" from="50981097" to="27523870"/>
    <trip id="bus595" type="bus_bus" depart="51.17" from="50981101" to="171887696"/>
    <trip id="bus596" type="bus_bus" depart="51.26" from="1120029183" to="1006864292#1-AddedOnRampEdge"/>
    <trip id="bus607" type="bus_bus" depart="52.20" from="54490585#0" to="620740374"/>
    <trip id="bus626" type="bus_bus" depart="53.84" from="42064105" to="563554164"/>
    <trip id="bus627" type="bus_bus" depart="53.92" from="754507517" to="206489475"/>
    <trip id="bus631" type="bus_bus" depart="54.27" from="1058097564" to="70712256"/>
    <trip id="bus635" type="bus_bus" depart="54.61" from="259704144" to="277609540"/>
    <trip id="bus645" type="bus_bus" depart="55.47" from="1153401502#0" to="170302313"/>
    <trip id="bus652" type="bus_bus" depart="56.07" from="492922776" to="277609540-AddedOnRampEdge"/>
    <trip id="bus657" type="bus_bus" depart="56.50" from="139865627" to="1122898979"/>
    <trip id="bus669" type="bus_bus" depart="57.53" from="54490585#1-AddedOnRampEdge" to="206489475"/>
    <trip id="bus673" type="bus_bus" depart="57.88" from="968537871#0" to="974897490"/>
    <trip id="bus679" type="bus_bus" depart="58.39" from="754507516" to="326869050"/>
    <trip id="bus683" type="bus_bus" depart="58.74" from="800876753#0" to="1139168722"/>
    <trip id="bus685" type="bus_bus" depart="58.91" from="139865627" to="230526727"/>
    <trip id="bus701" type="bus_bus" depart="60.29" from="228330842" to="563554164"/>
    <trip id="bus702" type="bus_bus" depart="60.37" from="277606823" to="1122898977"/>
    <trip id="bus707" type="bus_bus" depart="60.80" from="139939973" to="171887696"/>
    <trip id="bus712" type="bus_bus" depart="61.23" from="171850631" to="230526728"/>
    <trip id="bus714" type="bus_bus" depart="61.40" from="139939973" to="1006864287#1"/>
    <trip id="bus722" type="bus_bus" depart="62.09" from="43948499#0" to="620740374"/>
    <trip id="bus724" type="bus_bus" depart="62.26" from="277606823" to="141726030"/>
    <trip id="bus726" type="bus_bus" depart="62.44" from="1041879013#0" to="968537873"/>
    <trip id="bus730" type="bus_bus" depart="62.78" from="170324601" to="563554160"/>
    <trip id="bus733" type="bus_bus" depart="63.04" from="754507517" to="491463047"/>
    <trip id="bus734" type="bus_bus" depart="63.12" from="754507517" to="170330062"/>
    <trip id="bus737" type="bus_bus" depart="63.38" from="361546030" to="563554164"/>
    <trip id="bus738" type="bus_bus" depart="63.47" from="50981101" to="1116479401"/>
    <trip id="bus740" type="bus_bus" depart="63.64" from="402937994" to="170300057#1"/>
    <trip id="bus747" type="bus_bus" depart="64.24" from="974897487#0" to="968537874#1"/>
    <trip id="bus749" type="bus_bus" depart="64.41" from="170324601" to="563554164"/>
    <trip id="bus751" type="bus_bus" depart="64.59" from="1153401502#0" to="37375978#1"/>
    <trip id="bus754" type="bus_bus" depart="64.84" from="170324601" to="170324614"/>
    <trip id="bus760" type="bus_bus" depart="65.36" from="139939973" to="1122898977"/>
    <trip id="bus761" type="bus_bus" depart="65.45" from="54490585#0" to="27523870"/>
    <trip id="bus768" type="bus_bus" depart="66.05" from="800876753#0" to="206489381"/>
    <trip id="bus769" type="bus_bus" depart="66.13" from="1058097564" to="43947366"/>
    <trip id="bus770" type="bus_bus" depart="66.22" from="706717749" to="170300057#0"/>
    <trip id="bus778" type="bus_bus" depart="66.91" from="1030310860" to="326869050"/>
    <trip id="bus782" type="bus_bus" depart="67.25" from="978688503-AddedOffRampEdge" to="43949840"/>
    <trip id="bus783" type="bus_bus" depart="67.34" from="361546030" to="549031727"/>
    <trip id="bus784" type="bus_bus" depart="67.42" from="70237915" to="1116479401"/>
    <trip id="bus790" type="bus_bus" depart="67.94" from="228330842" to="767762481"/>
    <trip id="bus792" type="bus_bus" depart="68.11" from="1153401502#0" to="1153401503#1"/>
    <trip id="bus798" type="bus_bus" depart="68.63" from="170300361#0" to="277610685"/>
    <trip id="bus799" type="bus_bus" depart="68.71" from="347960410#0" to="1153401503#1"/>
    <trip id="bus815" type="bus_bus" depart="70.09" from="170300361#0" to="43949840"/>
    <trip id="bus818" type="bus_bus" depart="70.35" from="170601197#0" to="326869050"/>
    <trip id="bus833" type="bus_bus" depart="71.64" from="465114042" to="230526728"/>
    <trip id="bus835" type="bus_bus" depart="71.81" from="228330842" to="70707216"/>
    <trip id="bus837" type="bus_bus" depart="71.98" from="170324601" to="170330062"/>
    <trip id="bus840" type="bus_bus" depart="72.24" from="347960410#0" to="54603763-AddedOnRampEdge"/>
    <trip id="bus855" type="bus_bus" depart="73.53" from="361546030" to="43948508"/>
    <trip id="bus862" type="bus_bus" depart="74.13" from="620740370" to="563554160"/>
    <trip id="bus877" type="bus_bus" depart="75.42" from="1158381785" to="767762481"/>
    <trip id="bus879" type="bus_bus" depart="75.59" from="618806178" to="43949840-AddedOnRampEdge"/>
    <trip id="bus897" type="bus_bus" depart="77.14" from="50981097" to="1122898979"/>
    <trip id="bus899" type="bus_bus" depart="77.31" from="139939973" to="43947347#2"/>
    <trip id="bus902" type="bus_bus" depart="77.57" from="50981101" to="1122898977"/>
    <trip id="bus906" type="bus_bus" depart="77.92" from="754507517" to="230526728"/>
    <trip id="bus912" type="bus_bus" depart="78.43" from="800876753#0" to="1159944512"/>
    <trip id="bus913" type="bus_bus" depart="78.52" from="754507517" to="1159944512"/>
    <trip id="bus915" type="bus_bus" depart="78.69" from="171850642#1" to="27523870"/>
    <trip id="bus926" type="bus_bus" depart="79.64" from="1159944514#0" to="470810687-AddedOffRampEdge"/>
    <trip id="bus927" type="bus_bus" depart="79.72" from="620740370" to="326869083#1"/>
    <trip id="bus930" type="bus_bus" depart="79.98" from="706717747#0-AddedOffRampEdge" to="277609540"/>
    <trip id="bus931" type="bus_bus" depart="80.07" from="1058097564" to="43947347#2"/>
    <trip id="bus936" type="bus_bus" depart="80.50" from="170300361#0" to="459512011#1"/>
    <trip id="bus941" type="bus_bus" depart="80.93" from="754507517" to="43948508"/>
    <trip id="bus947" type="bus_bus" depart="81.44" from="206489474" to="326869050"/>
    <trip id="bus948" type="bus_bus" depart="81.53" from="277610684" to="277610685"/>
    <trip id="bus950" type="bus_bus" depart="81.70" from="139939973" to="491463047"/>
    <trip id="bus951" type="bus_bus" depart="81.79" from="754507516" to="1116479401"/>
    <trip id="bus956" type="bus_bus" depart="82.22" from="1153401502#0" to="170300057#1"/>
    <trip id="bus957" type="bus_bus" depart="82.30" from="361546030" to="1122898977"/>
    <trip id="bus967" type="bus_bus" depart="83.16" from="1041879042" to="974897490"/>
    <trip id="bus968" type="bus_bus" depart="83.25" from="800876754" to="1116479401"/>
    <trip id="bus974" type="bus_bus" depart="83.76" from="754507516" to="767762481"/>
    <trip id="bus979" type="bus_bus" depart="84.19" from="361546030" to="461214774"/>
    <trip id="bus980" type="bus_bus" depart="84.28" from="139865627" to="1006864287#1"/>
    <trip id="bus982" type="bus_bus" depart="84.45" from="492922776" to="277610685"/>
    <trip id="bus983" type="bus_bus" depart="84.54" from="361546030" to="620740374"/>
    <trip id="bus986" type="bus_bus" depart="84.80" from="50981101" to="1122898977"/>
    <trip id="bus1002" type="bus_bus" depart="86.17" from="1041879042" to="968537874#1"/>
    <trip id="bus1003" type="bus_bus" depart="86.26" from="754507517" to="767762481"/>
    <trip id="bus1004" type="bus_bus" depart="86.34" from="43948499#0" to="171887696"/>
    <trip id="bus1006" type="bus_bus" depart="86.52" from="946728158" to="43947348#0"/>
    <trip id="bus1009" type="bus_bus" depart="86.77" from="171850631" to="491463047"/>
    <trip id="bus1010" type="bus_bus" depart="86.86" from="277610684" to="706717744"/>
    <trip id="bus1012" type="bus_bus" depart="87.03" from="620741529" to="767762481"/>
    <trip id="bus1014" type="bus_bus" depart="87.20" from="43210976" to="1122898979"/>
    <trip id="bus1018" type="bus_bus" depart="87.55" from="50981101" to="1159944512"/>
    <trip id="bus1022" type="bus_bus" depart="87.89" from="50981101" to="326869050"/>
    <trip id="bus1023" type="bus_bus" depart="87.98" from="277610684" to="706717746"/>
    <trip id="bus1030" type="bus_bus" depart="88.58" from="406802122" to="563554160"/>
    <trip id="bus1032" type="bus_bus" depart="88.75" from="170324601" to="1250832434"/>
    <trip id="bus1035" type="bus_bus" depart="89.01" from="277610684" to="706717744"/>
    <trip id="bus1036" type="bus_bus" depart="89.10" from="800876753#0" to="170324614"/>
    <trip id="bus1040" type="bus_bus" depart="89.44" from="43945004" to="171887696"/>
    <trip id="bus1041" type="bus_bus" depart="89.53" from="1153401502#0" to="170300057#1"/>
    <trip id="bus1050" type="bus_bus" depart="90.30" from="375714593" to="375714594"/>
    <trip id="bus1051" type="bus_bus" depart="90.39" from="1041879029#2-AddedOffRampEdge" to="1041879011#1"/>
    <trip id="bus1053" type="bus_bus" depart="90.56" from="492922776" to="54603763-AddedOnRampEdge"/>
    <trip id="bus1055" type="bus_bus" depart="90.73" from="139865627" to="43948508"/>
    <trip id="bus1065" type="bus_bus" depart="91.59" from="800876753#0" to="1122898977"/>
    <trip id="bus1069" type="bus_bus" depart="91.93" from="171850642#1" to="170324614"/>
    <trip id="bus1072" type="bus_bus" depart="92.19" from="492922776" to="706717744"/>
    <trip id="bus1077" type="bus_bus" depart="92.62" from="1158381785" to="27523870"/>
    <trip id="bus1078" type="bus_bus" depart="92.71" from="228330842" to="563554160"/>
    <trip id="bus1082" type="bus_bus" depart="93.05" from="754507516" to="70707216"/>
    <trip id="bus1088" type="bus_bus" depart="93.57" from="43945019" to="491463047"/>
    <trip id="bus1089" type="bus_bus" depart="93.65" from="50981101" to="170330062"/>
    <trip id="bus1092" type="bus_bus" depart="93.91" from="171850631" to="70707216"/>
    <trip id="bus1095" type="bus_bus" depart="94.17" from="50981101" to="27523870"/>
    <trip id="bus1103" type="bus_bus" depart="94.86" from="946728158" to="171887696"/>
    <trip id="bus1113" type="bus_bus" depart="95.72" from="1159944514#1" to="206489475"/>
    <trip id="bus1125" type="bus_bus" depart="96.75" from="228330842" to="230526728"/>
    <trip id="bus1131" type="bus_bus" depart="97.27" from="43948499#0" to="563554164"/>
    <trip id="bus1137" type="bus_bus" depart="97.78" from="968537871#0-AddedOffRampEdge" to="968537875#1"/>
    <trip id="bus1140" type="bus_bus" depart="98.04" from="139939973" to="170324614"/>
    <trip id="bus1142" type="bus_bus" depart="98.21" from="1120029182" to="326869050"/>
    <trip id="bus1149" type="bus_bus" depart="98.81" from="206489379" to="27523870"/>
    <trip id="bus1150" type="bus_bus" depart="98.90" from="43948499#0" to="1250826063"/>
    <trip id="bus1151" type="bus_bus" depart="98.99" from="468231787" to="43948508"/>
    <trip id="bus1152" type="bus_bus" depart="99.07" from="620740370" to="1116479401"/>
    <trip id="bus1155" type="bus_bus" depart="99.33" from="800876754" to="43948495#1"/>
    <trip id="bus1157" type="bus_bus" depart="99.50" from="170324601" to="70707216"/>
    <trip id="bus1159" type="bus_bus" depart="99.67" from="1058097563#1" to="549031727"/>
    <trip id="bus1165" type="bus_bus" depart="100.19" from="1006864288" to="1250832434"/>
    <trip id="bus1166" type="bus_bus" depart="100.28" from="347960410#0" to="277609540"/>
    <trip id="bus1171" type="bus_bus" depart="100.71" from="1019460046-AddedOnRampEdge" to="1122898977"/>
    <trip id="bus1174" type="bus_bus" depart="100.96" from="1153401502#0" to="170300056"/>
    <trip id="bus1176" type="bus_bus" depart="101.14" from="277653336" to="230526728"/>
    <trip id="bus1180" type="bus_bus" depart="101.48" from="706717749" to="402937996#0"/>
    <trip id="bus1181" type="bus_bus" depart="101.57" from="492922776" to="1153401503#1"/>
    <trip id="bus1189" type="bus_bus" depart="102.25" from="43947348#0" to="170330062"/>
    <trip id="bus1190" type="bus_bus" depart="102.34" from="50981097" to="1249788664"/>
    <trip id="bus1193" type="bus_bus" depart="102.60" from="754507516" to="1159944512"/>
    <trip id="bus1195" type="bus_bus" depart="102.77" from="154281583" to="706717746"/>
    <trip id="bus1199" type="bus_bus" depart="103.11" from="706717749" to="37375978#1"/>
    <trip id="bus1202" type="bus_bus" depart="103.37" from="1058097563#1" to="1122898979"/>
    <trip id="bus1204" type="bus_bus" depart="103.54" from="1158381785" to="43948495#2-AddedOnRampEdge"/>
    <trip id="bus1213" type="bus_bus" depart="104.32" from="1006864288" to="1122898979"/>
    <trip id="bus1220" type="bus_bus" depart="104.92" from="154281583" to="277610685"/>
    <trip id="bus1221" type="bus_bus" depart="105.01" from="1158381785" to="230526727"/>
    <trip id="bus1224" type="bus_bus" depart="105.26" from="1120029182" to="563554160"/>
    <trip id="bus1225" type="bus_bus" depart="105.35" from="70237915" to="170324614"/>
    <trip id="bus1240" type="bus_bus" depart="106.64" from="170300357" to="277610685"/>
    <trip id="bus1247" type="bus_bus" depart="107.24" from="754507516" to="1122898979"/>