<?xml version="1.0" encoding="UTF-8"?>

<!-- generated on 2024-12-02 10:41:37.235516 by main.py UNKNOWN
<configuration>
    <net-file value="/root/myvenv/nextpj/src/backend/data/scenario_1733136078/osm.net.xml.gz"/>
    <output-trip-file value="/root/myvenv/nextpj/src/backend/data/scenario_1733136078/osm.truck.trips.xml"/>
    <route-file value="/root/myvenv/nextpj/src/backend/data/scenario_1733136078/osm.truck.rou.xml"/>
    <prefix value="truck"/>
    <vehicle-class value="truck"/>
    <fringe-factor value="20.0"/>
    <validate value="True"/>
    <insertion-density value="80.0"/>
</configuration>
-->

<!-- generated on 2024-12-02 10:41:36 by Eclipse SUMO duarouter Version 1.21.0
<duarouterConfiguration xmlns:xsi="http://www.w3.org/2001/XMLSchema-instance" xsi:noNamespaceSchemaLocation="http://sumo.dlr.de/xsd/duarouterConfiguration.xsd">

    <input>
        <net-file value="/root/myvenv/nextpj/src/backend/data/scenario_1733136078/osm.net.xml.gz"/>
        <route-files value="/root/myvenv/nextpj/src/backend/data/scenario_1733136078/osm.truck.trips.xml"/>
    </input>

    <output>
        <output-file value="/root/myvenv/nextpj/src/backend/data/scenario_1733136078/osm.truck.rou.xml"/>
        <alternatives-output value="NUL"/>
    </output>

    <time>
        <begin value="0.0"/>
        <end value="3600.0"/>
    </time>

    <report>
        <no-warnings value="true"/>
        <ignore-errors value="true"/>
        <no-step-log value="true"/>
    </report>

</duarouterConfiguration>
-->

<routes xmlns:xsi="http://www.w3.org/2001/XMLSchema-instance" xsi:noNamespaceSchemaLocation="http://sumo.dlr.de/xsd/routes_file.xsd">
    <vType id="truck_truck" vClass="truck"/>
    <vehicle id="truck2" type="truck_truck" depart="0.19">
        <route edges="54490585#0 54490585#1-AddedOnRampEdge 54490585#1 206489474 465114042 42064105 42064105-AddedOffRampEdge 406802122 1120029183 43947369#1-AddedOnRampEdge 43947369#1 170601197#0 43947348#0 43947348#1-AddedOnRampEdge 43947348#1 43947348#1-AddedOffRampEdge 43947352#1"/>
    </vehicle>
    <vehicle id="truck5" type="truck_truck" depart="0.48">
        <route edges="139865627 171850642#1 171850642#2 1250971022 1250971022-AddedOffRampEdge 43945022 43945021 1006864292#1-AddedOnRampEdge 1006864292#1 43945006 43944990#1 43947347#1 43947347#2 43947366 1122897134 1120029191 1139168722 206489379-AddedOnRampEdge 206489379 170605263 70712256 27523870"/>
    </vehicle>
    <vehicle id="truck6" type="truck_truck" depart="0.58">
        <route edges="1030310860 767762479 767762479-AddedOffRampEdge 43948503#1 43948503#2 660731151 43947369#1-AddedOnRampEdge 43947369#1 170601197#0 43947348#0 43947348#1-AddedOnRampEdge 43947348#1 43947348#1-AddedOffRampEdge 43947352#1 326869083#1 1058097562#0 1058097562#0-AddedOffRampEdge 37373854#0 37373854#0-AddedOffRampEdge 1249788664"/>
    </vehicle>
    <vehicle id="truck11" type="truck_truck" depart="1.06">
        <route edges="170300362 170300361#1-AddedOnRampEdge 170300361#1 170302305-AddedOnRampEdge 170302305 170931915 186177616 186177615 43211965 375714597 43949840-AddedOnRampEdge 43949840 43949840-AddedOffRampEdge 346577897 402937996#0 402937996#1 346005902 346005902-AddedOffRampEdge 277609807 54603763-AddedOnRampEdge 54603763 74267990 74267990-AddedOffRampEdge 1153401503#0 1153401503#1"/>
    </vehicle>
    <vehicle id="truck18" type="truck_truck" depart="1.74">
        <route edges="706717749 66420935-AddedOnRampEdge 66420935 1313783491 346577894 346577895 346577895-AddedOffRampEdge 37375978#0 37375978#0-AddedOffRampEdge 37375978#1"/>
    </vehicle>
    <vehicle id="truck28" type="truck_truck" depart="2.71">
        <route edges="1158381785 1161614809#1-AddedOnRampEdge 1161614809#1 1058097563#1-AddedOnRampEdge 1058097563#1 43944990#1 43947347#1 43947347#2 43947366 1122897134 41844004 1120029190 1120029189 43947368-AddedOnRampEdge 43947368 206489381 470810687 470810687-AddedOffRampEdge 206489475 465114048 465114048-AddedOffRampEdge"/>
    </vehicle>
    <vehicle id="truck29" type="truck_truck" depart="2.81">
        <route edges="1158381785 1161614809#1-AddedOnRampEdge 1161614809#1 1058097563#1-AddedOnRampEdge 1058097563#1 43944990#1 1122898981 1122898984 1122898982 461214774 461214773#0 1159944499 170324607 170324607-AddedOffRampEdge 170324614"/>
    </vehicle>
    <vehicle id="truck38" type="truck_truck" depart="3.68">
        <route edges="800876753#0 800876753#1 50980478 1250971022 1250971022-AddedOffRampEdge 43945022 43945021 1006864292#1-AddedOnRampEdge 1006864292#1 43945006 43944990#1 43947347#1 43947347#2 43947366 1122897134 41844004 1120029190 1120029189 43947368-AddedOnRampEdge 43947368 206489381 470810687 470810687-AddedOffRampEdge 206489475 465114048 465114048-AddedOffRampEdge 230526727"/>
    </vehicle>
    <vehicle id="truck40" type="truck_truck" depart="3.87">
        <route edges="43944997 70237915 1250832434"/>
    </vehicle>
    <vehicle id="truck41" type="truck_truck" depart="3.97">
        <route edges="43945006 43944990#1 43947347#1 43947347#2 43947366 1122897134 41844004 1120029190 1120029189 43947368-AddedOnRampEdge 43947368 206489381 470810687 470810687-AddedOffRampEdge 70707214 70707216"/>
    </vehicle>
    <vehicle id="truck46" type="truck_truck" depart="4.45">
        <route edges="620740370 326869083#1 1058097562#0 1058097562#0-AddedOffRampEdge 37373854#0 37373854#0-AddedOffRampEdge 1249788666 1251032985 1164088375 1058097563#1-AddedOnRampEdge 1058097563#1 43944990#1 1122898981 1122898984 1122898982 461214774 461214773#0 1159944499 1122898976 1122898978 170322613 171887695 171887696"/>
    </vehicle>
    <vehicle id="truck48" type="truck_truck" depart="4.64">
        <route edges="978688502 978688503 978688503-AddedOffRampEdge 54603773 277609540-AddedOnRampEdge 277609540"/>
    </vehicle>
    <vehicle id="truck52" type="truck_truck" depart="5.03">
        <route edges="154281583 154281583-AddedOffRampEdge 569158514#1 277609538#1 186177617 186177620 402937995#0 402937995#1 402937994 1313783491 346577894 346577895 346577895-AddedOffRampEdge 37375978#0 37375978#0-AddedOffRampEdge 347954262 375714593 377057234 375714594"/>
    </vehicle>
    <vehicle id="truck55" type="truck_truck" depart="5.32">
        <route edges="754507517 1159944513 1159944514#0 1159944514#1 43210976 468231787 468231787-AddedOffRampEdge 1122898980 43947348#1-AddedOnRampEdge 43947348#1 43947348#1-AddedOffRampEdge 43947352#1 326869083#1 43947355#1 1156581474#0 1156581474#0-AddedOffRampEdge 43945019 43944996 43944997-AddedOnRampEdge 43944997 70237915 1250832434"/>
    </vehicle>
    <vehicle id="truck60" type="truck_truck" depart="5.81">
        <route edges="618806178 347960410#1-AddedOnRampEdge 347960410#1 43211965 375714597 43949840-AddedOnRampEdge 43949840 43949840-AddedOffRampEdge 346577897 402937996#0 402937996#1 346005902 346005902-AddedOffRampEdge 277609807 54603763-AddedOnRampEdge 54603763 74267990 74267990-AddedOffRampEdge 1153401503#0 277610685"/>
    </vehicle>
    <vehicle id="truck64" type="truck_truck" depart="6.19">
        <route edges="754507517 1159944513 1159944514#0 1159944514#1 43210976 468231787 468231787-AddedOffRampEdge 1122898980 43947348#1-AddedOnRampEdge 43947348#1 43947348#1-AddedOffRampEdge 43947352#1 326869083#1 43947355#1 1156581474#0 1156581474#0-AddedOffRampEdge 43945019 43944996 43944997-AddedOnRampEdge 43944997 70237915"/>
    </vehicle>
    <vehicle id="truck67" type="truck_truck" depart="6.48">
        <route edges="1058097563#1-AddedOnRampEdge 1058097563#1 43944990#1 43947347#1 43947347#2 43947366 1122897134 41844004 1120029190 1120029189 43947368-AddedOnRampEdge 43947368 206489381 470810687 470810687-AddedOffRampEdge 206489475 465114048 465114048-AddedOffRampEdge 230526728"/>
    </vehicle>
    <vehicle id="truck70" type="truck_truck" depart="6.77">
        <route edges="277610684 1153401502#1 978688502-AddedOnRampEdge 978688502 978688503 978688503-AddedOffRampEdge 54603770 277609538#1 186177617 186177620 402937995#0 706717747#0 706717747#0-AddedOffRampEdge 1153401501 459512011#3-AddedOnRampEdge 459512011#3 402937996#1 346005902 346005902-AddedOffRampEdge 277609807 54603763-AddedOnRampEdge 54603763 74267990 74267990-AddedOffRampEdge 1153401503#0 277610685"/>
    </vehicle>
    <vehicle id="truck71" type="truck_truck" depart="6.87">
        <route edges="154281583 154281583-AddedOffRampEdge 569158514#1 277609538#1 186177617 186177620 402937995#0 706717747#0"/>
    </vehicle>
    <vehicle id="truck72" type="truck_truck" depart="6.97">
        <route edges="228330842 54490585#1-AddedOnRampEdge 54490585#1 206489474 465114042 42064105 42064105-AddedOffRampEdge 406802122 1120029183 43947369#1-AddedOnRampEdge 43947369#1 170601197#0 43947348#0 43947348#1-AddedOnRampEdge 43947348#1 43947348#1-AddedOffRampEdge 43947352#1 326869083#1 1058097562#0 1058097562#0-AddedOffRampEdge 37373854#0 37373854#0-AddedOffRampEdge 1249788664"/>
    </vehicle>
    <vehicle id="truck76" type="truck_truck" depart="7.35">
        <route edges="259704144 459512011#1 459512011#3-AddedOnRampEdge 459512011#3 402937996#1 346005902 346005902-AddedOffRampEdge 277609814#1 277609540-AddedOnRampEdge 277609540"/>
    </vehicle>
    <vehicle id="truck81" type="truck_truck" depart="7.84">
        <route edges="139865627 171850642#1 171850642#2 1250971022 1250971022-AddedOffRampEdge 43945022 43945021 1006864292#1-AddedOnRampEdge 1006864292#1 43945006 43944990#1 43947347#1 43947347#2 43947366 170601193 43947365-AddedOnRampEdge 43947365 43948506 43948495#0 43948495#1 43948495#2-AddedOnRampEdge 43948495#2 946728157 767762481"/>
    </vehicle>
    <vehicle id="truck82" type="truck_truck" depart="7.93">
        <route edges="754507516 1159944514#1 43210976 468231787 468231787-AddedOffRampEdge 1122898974 43947347#2 43947366 1122897134 1120029191 1139168722 206489379-AddedOnRampEdge 206489379 170605263 70712256 1116479401"/>
    </vehicle>
    <vehicle id="truck83" type="truck_truck" depart="8.03">
        <route edges="139939973 171850642#1 171850642#2 1250971022 1250971022-AddedOffRampEdge 43945022 43945021"/>
    </vehicle>
    <vehicle id="truck84" type="truck_truck" depart="8.13">
        <route edges="1251032985 1164088375 1058097563#1-AddedOnRampEdge 1058097563#1 43944990#1 1122898981 1122898984 1122898982 461214774 461214773#0 1159944499 1122898976 1122898979"/>
    </vehicle>
    <vehicle id="truck88" type="truck_truck" depart="8.51">
        <route edges="1058097564 1161614809#1-AddedOnRampEdge 1161614809#1 1058097563#1-AddedOnRampEdge 1058097563#1 43944990#1 1122898981 1122898984 1122898982 461214774 461214773#0 1159944499 1122898976 1122898978 170322613 171887695 171887696"/>
    </vehicle>
    <vehicle id="truck89" type="truck_truck" depart="8.61">
        <route edges="228330842 54490585#1-AddedOnRampEdge 54490585#1 206489474 465114042 42064105 42064105-AddedOffRampEdge 406802122 1120029183 43947369#1-AddedOnRampEdge 43947369#1 170601197#0 43947348#0 43947348#1-AddedOnRampEdge 43947348#1 43947348#1-AddedOffRampEdge 43947352#1 326869083#1 1058097562#0 1058097562#0-AddedOffRampEdge 37373854#0 37373854#0-AddedOffRampEdge 1249788666 1251032985 1164088375 1058097563#1-AddedOnRampEdge 1058097563#1 43944990#1 43947347#1 43947347#2 43947366 1122897134 41844004 1120029190 1120029189 43947368-AddedOnRampEdge 43947368 206489381 470810687 470810687-AddedOffRampEdge 206489475 465114048 465114048-AddedOffRampEdge 230526727"/>
    </vehicle>
    <vehicle id="truck90" type="truck_truck" depart="8.71">
        <route edges="54490585#0 54490585#1-AddedOnRampEdge 54490585#1 206489474 465114042 42064105 42064105-AddedOffRampEdge 406802122 1120029183 43947369#1-AddedOnRampEdge 43947369#1 170601197#0 43947348#0"/>
    </vehicle>
    <vehicle id="truck93" type="truck_truck" depart="9.00">
        <route edges="754507516 1159944514#1 43210976 468231787 468231787-AddedOffRampEdge 1122898980 43947348#1-AddedOnRampEdge 43947348#1 43947348#1-AddedOffRampEdge 43947352#1 326869083#1 1058097562#0 1058097562#0-AddedOffRampEdge 1250826063"/>
    </vehicle>
    <vehicle id="truck95" type="truck_truck" depart="9.19">
        <route edges="228330842 54490585#1-AddedOnRampEdge 54490585#1 206489474 465114042 42064105 42064105-AddedOffRampEdge 406802122 1120029183 43947369#1-AddedOnRampEdge 43947369#1 170601197#0 43947348#0 43947348#1-AddedOnRampEdge 43947348#1 43947348#1-AddedOffRampEdge 43947352#1 326869083#1 43947355#1 1156581474#0 1156581474#0-AddedOffRampEdge 43945019 43944996 43944997-AddedOnRampEdge 43944997 70237915 171850634 563554160 139865627 171850642#1 171850642#2 1250971022"/>
    </vehicle>
    <vehicle id="truck99" type="truck_truck" depart="9.58">
        <route edges="978688503-AddedOffRampEdge 54603770 277609538#1 186177617 186177620 402937995#0 402937995#1 402937994 1313783491 346577894 346577895 346577895-AddedOffRampEdge 347954273#1 186177614 403883037 961015525 961015525-AddedOffRampEdge 170302313 170300357 170302308 37376109 170302305-AddedOnRampEdge 170302305 170931915 186177616 186177615 43211965 375714597 43949840-AddedOnRampEdge 43949840 43949840-AddedOffRampEdge 66420910 66420910-AddedOffRampEdge 706717744"/>
    </vehicle>
    <vehicle id="truck101" type="truck_truck" depart="9.77">
        <route edges="706717749 66420935-AddedOnRampEdge 66420935 1313783491 346577894 346577895 346577895-AddedOffRampEdge 347954273#1 186177614 403883037 961015525 961015525-AddedOffRampEdge 170302313 170300357 170302308 37376109 170302305-AddedOnRampEdge 170302305 170931915 186177616 186177615 43211965 375714597 43949840-AddedOnRampEdge 43949840 43949840-AddedOffRampEdge 346577897 402937996#0 402937996#1 346005902 346005902-AddedOffRampEdge 277609807 54603763-AddedOnRampEdge 54603763 74267990 74267990-AddedOffRampEdge 1153401503#0 1153401503#1"/>
    </vehicle>
    <vehicle id="truck102" type="truck_truck" depart="9.87">
        <route edges="326869083#1 1058097562#0 1058097562#0-AddedOffRampEdge 37373854#0 37373854#0-AddedOffRampEdge 1249788664"/>
    </vehicle>
    <vehicle id="truck107" type="truck_truck" depart="10.35">
        <route edges="968537871#0 968537871#0-AddedOffRampEdge 968537871#1 1041879029#2-AddedOnRampEdge 1041879029#2 1041879029#2-AddedOffRampEdge 1041878998 974897490-AddedOnRampEdge"/>
    </vehicle>
    <vehicle id="truck113" type="truck_truck" depart="10.93">
        <route edges="347960410#0 347960410#1-AddedOnRampEdge 347960410#1 43211965 375714597 43949840-AddedOnRampEdge 43949840 43949840-AddedOffRampEdge 66420910 66420910-AddedOffRampEdge 706717745"/>
    </vehicle>
    <vehicle id="truck116" type="truck_truck" depart="11.22">
        <route edges="43947348#1-AddedOnRampEdge 43947348#1 43947348#1-AddedOffRampEdge"/>
    </vehicle>
    <vehicle id="truck117" type="truck_truck" depart="11.32">
        <route edges="139865627 171850642#1 171850642#2 1250971022 1250971022-AddedOffRampEdge 43945022 43945021 1006864292#1-AddedOnRampEdge 1006864292#1 43945006 43944990#1 1122898981 1122898984 1122898982 461214774 461214773#0 1159944499 1122898976 1122898979"/>
    </vehicle>
    <vehicle id="truck118" type="truck_truck" depart="11.42">
        <route edges="754507517 1159944513 1159944514#0 1159944514#1 43210976 468231787 468231787-AddedOffRampEdge 1122898980 43947348#1-AddedOnRampEdge 43947348#1 43947348#1-AddedOffRampEdge 43947352#1 326869083#1 1058097562#0 1058097562#0-AddedOffRampEdge 1250826063"/>
    </vehicle>
    <vehicle id="truck122" type="truck_truck" depart="11.80">
        <route edges="1251032985 1164088375 1058097563#1-AddedOnRampEdge 1058097563#1 43944990#1 43947347#1 43947347#2 43947366 170601193 43947365-AddedOnRampEdge 43947365 43948506 43948495#0 43948508"/>
    </vehicle>
    <vehicle id="truck123" type="truck_truck" depart="11.90">
        <route edges="139939973 171850642#1 171850642#2 1250971022 1250971022-AddedOffRampEdge 43945022 43945021 1006864292#1-AddedOnRampEdge 1006864292#1 43945006 43944990#1 1122898981 1122898984 1122898982 461214774 461214773#0 1159944499 170324607 170324607-AddedOffRampEdge 491463050 549031727 549031726 170330062"/>
    </vehicle>
    <vehicle id="truck130" type="truck_truck" depart="12.58">
        <route edges="754507517 1159944513 1159944514#0 1159944514#1 43210976 468231787 468231787-AddedOffRampEdge 1122898974 43947347#2 43947366 1122897134 41844004 1120029190 1120029189 43947368-AddedOnRampEdge 43947368 206489381 470810687 470810687-AddedOffRampEdge 70707214 70707216"/>
    </vehicle>
    <vehicle id="truck134" type="truck_truck" depart="12.96">
        <route edges="468231787-AddedOffRampEdge 1122898980 43947348#1-AddedOnRampEdge 43947348#1 43947348#1-AddedOffRampEdge 43947352#1 326869083#1 43947355#1 1156581474#0 1156581474#0-AddedOffRampEdge 1156581474#1 1006864287#1-AddedOnRampEdge 1006864287#1"/>
    </vehicle>
    <vehicle id="truck140" type="truck_truck" depart="13.55">
        <route edges="50981101 206488705 170605264 170605269 1120029182 1120029183 43947369#1-AddedOnRampEdge 43947369#1 170601197#0 43947348#0 43947348#1-AddedOnRampEdge 43947348#1 43947348#1-AddedOffRampEdge 43947352#1 326869083#1 1058097562#0 1058097562#0-AddedOffRampEdge 37373854#0 37373854#0-AddedOffRampEdge 1249788664"/>
    </vehicle>
    <vehicle id="truck141" type="truck_truck" depart="13.64">
        <route edges="43948499#0-AddedOffRampEdge 43948499#1 946728158 767762479 767762479-AddedOffRampEdge 43948503#1 43948503#2 660731151 43947369#1-AddedOnRampEdge 43947369#1 170601197#0 43947348#0 43947348#1-AddedOnRampEdge 43947348#1 43947348#1-AddedOffRampEdge 43947352#1 326869083#1 43947355#1 1156581474#0 1156581474#0-AddedOffRampEdge 43945019 43944996 43944997-AddedOnRampEdge 43944997 70237915 1250832434"/>
    </vehicle>
    <vehicle id="truck144" type="truck_truck" depart="13.93">
        <route edges="228330842 54490585#1-AddedOnRampEdge 54490585#1 206489474 465114042 42064105 42064105-AddedOffRampEdge 406802122 1120029183 43947369#1-AddedOnRampEdge 43947369#1 170601197#0 43947348#0 43947348#1-AddedOnRampEdge 43947348#1 43947348#1-AddedOffRampEdge 43947352#1 326869083#1 43947355#1 1156581474#0 1156581474#0-AddedOffRampEdge 43945019 43944996 43944997-AddedOnRampEdge 43944997 70237915 1250832434"/>
    </vehicle>
    <vehicle id="truck145" type="truck_truck" depart="14.03">
        <route edges="1006864288 1102263703 43945016 43944996 43944997-AddedOnRampEdge 43944997 70237915 171850634 563554160"/>
    </vehicle>
    <vehicle id="truck146" type="truck_truck" depart="14.13">
        <route edges="43948503#1 43948503#2 660731151 43947369#1-AddedOnRampEdge 43947369#1 170601197#0 43947348#0 43947348#1-AddedOnRampEdge 43947348#1 43947348#1-AddedOffRampEdge 43947352#1 326869083#1 43947355#1 1156581474#0 1156581474#0-AddedOffRampEdge 43945019 43944996 43944997-AddedOnRampEdge 43944997 70237915 1250832434"/>
    </vehicle>
    <vehicle id="truck148" type="truck_truck" depart="14.32">
        <route edges="228330842 54490585#1-AddedOnRampEdge 54490585#1 206489474 465114042 42064105 42064105-AddedOffRampEdge 406802122 1120029183 43947369#1-AddedOnRampEdge 43947369#1 170601197#0 43947348#0 43947348#1-AddedOnRampEdge 43947348#1 43947348#1-AddedOffRampEdge 43947352#1 326869083#1 43947355#1 1156581474#0 1156581474#0-AddedOffRampEdge 1156581474#1 1006864287#1-AddedOnRampEdge 1006864287#1"/>
    </vehicle>
    <vehicle id="truck151" type="truck_truck" depart="14.61">
        <route edges="706717749 66420935-AddedOnRampEdge 66420935 1313783491 346577894 346577895 346577895-AddedOffRampEdge 37375978#0 37375978#0-AddedOffRampEdge 347954262 375714593 347960408"/>
    </vehicle>
    <vehicle id="truck156" type="truck_truck" depart="15.09">
        <route edges="139939973 171850642#1 171850642#2 1250971022 1250971022-AddedOffRampEdge 43945022 43945021 1006864292#1-AddedOnRampEdge 1006864292#1 43945006 43944990#1 1122898981 1122898984 1122898982 461214774 461214773#0 1159944499 1122898976 1122898978 1122898977"/>
    </vehicle>
    <vehicle id="truck157" type="truck_truck" depart="15.19">
        <route edges="620740370 326869083#1 1058097562#0 1058097562#0-AddedOffRampEdge 37373854#0 37373854#0-AddedOffRampEdge 1249788666 1251032985 1164088375 1058097563#1-AddedOnRampEdge 1058097563#1 43944990#1 43947347#1 43947347#2 43947366 1122897134 41844004 1120029190 1120029189 43947368-AddedOnRampEdge 43947368 206489381 470810687 470810687-AddedOffRampEdge 70707214 70707216"/>
    </vehicle>
    <vehicle id="truck158" type="truck_truck" depart="15.29">
        <route edges="186177617 186177620 402937995#0 402937995#1 402937994 1313783491 346577894 346577895 346577895-AddedOffRampEdge 37375978#0 37375978#0-AddedOffRampEdge 37375978#1"/>
    </vehicle>
    <vehicle id="truck162" type="truck_truck" depart="15.67">
        <route edges="1019460046-AddedOnRampEdge 1019460046 767762479 767762479-AddedOffRampEdge 43948503#1 43948503#2 660731151 43947369#1-AddedOnRampEdge 43947369#1 170601197#0 1122898985 1122898987 1122898986 1122898982 461214774 461214773#0 1159944499 1122898976 1122898978 170322613 171887695 471373327 471373328"/>
    </vehicle>
    <vehicle id="truck166" type="truck_truck" depart="16.06">
        <route edges="620740370 326869083#1 1058097562#0 1058097562#0-AddedOffRampEdge 37373854#0 37373854#0-AddedOffRampEdge 1249788666 1251032985 1164088375 1058097563#1-AddedOnRampEdge 1058097563#1 43944990#1 1122898981 1122898984 1122898982 461214774 461214773#0 1159944499 1122898976 1122898978 1122898977"/>
    </vehicle>
    <vehicle id="truck169" type="truck_truck" depart="16.35">
        <route edges="277609538#1 186177617 186177620 402937995#0 402937995#1 402937994 1313783491 346577894 346577895 346577895-AddedOffRampEdge 347954273#1 186177614 403883037 961015525 961015525-AddedOffRampEdge 170300057#0 170300057#0-AddedOffRampEdge 170300056"/>
    </vehicle>
    <vehicle id="truck170" type="truck_truck" depart="16.45">
        <route edges="620740370 326869083#1 1058097562#0 1058097562#0-AddedOffRampEdge 37373854#0 37373854#0-AddedOffRampEdge 1249788666"/>
    </vehicle>
    <vehicle id="truck176" type="truck_truck" depart="17.03">
        <route edges="800876754 800876753#1 50980478 1250971022 1250971022-AddedOffRampEdge 43945022 43945021 1006864292#1-AddedOnRampEdge 1006864292#1 43945006 43944990#1 1122898981 1122898984 1122898982 461214774 461214773#0 1159944499 1122898976 1122898978 1122898977"/>
    </vehicle>
    <vehicle id="truck179" type="truck_truck" depart="17.32">
        <route edges="1102263703 1156581469 1006864292#1-AddedOnRampEdge 1006864292#1 43945006 43944990#1 1122898981 1122898984 1122898982 461214774 461214773#0 1159944499 1122898976 1122898978 170322613 171887695 171887696"/>
    </vehicle>
    <vehicle id="truck183" type="truck_truck" depart="17.71">
        <route edges="139939973 171850642#1 171850642#2 1250971022 1250971022-AddedOffRampEdge 43945022 43945021 1006864292#1-AddedOnRampEdge 1006864292#1 43945006 43944990#1 43947347#1 43947347#2 43947366 170601193 43947365-AddedOnRampEdge 43947365 43948506 43948495#0 43948508"/>
    </vehicle>
    <vehicle id="truck186" type="truck_truck" depart="18.00">
        <route edges="54490585#0 54490585#1-AddedOnRampEdge 54490585#1 206489474 465114042 42064105 42064105-AddedOffRampEdge 406802122 1120029183 43947369#1-AddedOnRampEdge 43947369#1 170601197#0 43947348#0 43947348#1-AddedOnRampEdge 43947348#1 43947348#1-AddedOffRampEdge 43947352#1 326869083#1 43947355#1 1156581474#0 1156581474#0-AddedOffRampEdge 43945019 43944996 43944997-AddedOnRampEdge 43944997 70237915 171850634 563554160 139865627 171850642#1 171850642#2 1250971022 1250971022-AddedOffRampEdge 43945022"/>
    </vehicle>
    <vehicle id="truck187" type="truck_truck" depart="18.09">
        <route edges="170324601 1159944514#0 1159944514#1 43210976 468231787 468231787-AddedOffRampEdge 1122898974 43947347#2 43947366 1122897134 1120029191 1139168722 206489379-AddedOnRampEdge 206489379 170605263 70712256 1116479401"/>
    </vehicle>
    <vehicle id="truck189" type="truck_truck" depart="18.29">
        <route edges="170300361#0 170300361#1-AddedOnRampEdge 170300361#1 170302305-AddedOnRampEdge 170302305 170931915 186177616 186177615 43211965 375714597 43949840-AddedOnRampEdge 43949840 43949840-AddedOffRampEdge 66420910 66420910-AddedOffRampEdge 706717744"/>
    </vehicle>
    <vehicle id="truck193" type="truck_truck" depart="18.67">
        <route edges="1122898981 1122898984 1122898982 461214774 461214773#0 1159944499 1122898976 1122898978 170322613 171887695 171887696"/>
    </vehicle>
    <vehicle id="truck196" type="truck_truck" depart="18.96">
        <route edges="170300357 170302308 37376109 170302305-AddedOnRampEdge 170302305 170931915 186177616 186177615 43211965 375714597 43949840-AddedOnRampEdge 43949840 43949840-AddedOffRampEdge 346577897 402937996#0 402937996#1 346005902 346005902-AddedOffRampEdge 277609807 54603763-AddedOnRampEdge 54603763 74267990 74267990-AddedOffRampEdge 1153401503#0 277610685"/>
    </vehicle>
    <vehicle id="truck199" type="truck_truck" depart="19.25">
        <route edges="470810687 470810687-AddedOffRampEdge 206489475 465114048 465114048-AddedOffRampEdge 230526727"/>
    </vehicle>
    <vehicle id="truck201" type="truck_truck" depart="19.45">
        <route edges="277610684 1153401502#1 978688502-AddedOnRampEdge 978688502 978688503 978688503-AddedOffRampEdge 54603770 277609538#1 186177617 186177620 402937995#0 706717747#0 706717747#0-AddedOffRampEdge 1153401501 459512011#3-AddedOnRampEdge 459512011#3 402937996#1 346005902 346005902-AddedOffRampEdge 277609807 54603763-AddedOnRampEdge 54603763 74267990 74267990-AddedOffRampEdge"/>
    </vehicle>
    <vehicle id="truck208" type="truck_truck" depart="20.12">
        <route edges="139939973 171850642#1 171850642#2 1250971022 1250971022-AddedOffRampEdge 43945022 43945021 1006864292#1-AddedOnRampEdge 1006864292#1 43945006 43944990#1 43947347#1 43947347#2 43947366 1122897134 41844004 1120029190 1120029189 43947368-AddedOnRampEdge 43947368 206489381 470810687 470810687-AddedOffRampEdge 206489475 465114048 465114048-AddedOffRampEdge 230526728"/>
    </vehicle>
    <vehicle id="truck215" type="truck_truck" depart="20.80">
        <route edges="1058097564 1161614809#1-AddedOnRampEdge 1161614809#1 1058097563#1-AddedOnRampEdge 1058097563#1 43944990#1 1122898981 1122898984 1122898982 461214774 461214773#0 1159944499 1122898976 1122898978 170322613 171887695 171887696"/>
    </vehicle>
    <vehicle id="truck223" type="truck_truck" depart="21.58">
        <route edges="50981101 206488705 170605264 170605269 1120029182 1120029183 43947369#1-AddedOnRampEdge 43947369#1 170601197#0 43947348#0 43947348#1-AddedOnRampEdge 43947348#1 43947348#1-AddedOffRampEdge 43947352#1 326869083#1 1058097562#0 1058097562#0-AddedOffRampEdge 37373854#0 37373854#0-AddedOffRampEdge 1249788666 1251032985 1164088375 1058097563#1-AddedOnRampEdge 1058097563#1 43944990#1 43947347#1 43947347#2 43947366 1122897134 1120029191 1139168722 206489379-AddedOnRampEdge 206489379 170605263 70712256 27523870"/>
    </vehicle>
    <vehicle id="truck224" type="truck_truck" depart="21.67">
        <route edges="706717749 66420935-AddedOnRampEdge 66420935 1313783491 346577894 346577895 346577895-AddedOffRampEdge 347954273#1 186177614 403883037 961015525 961015525-AddedOffRampEdge 170302313 170300357 170302308 37376109 170302305-AddedOnRampEdge 170302305 170931915 186177616 186177615 43211965 375714597 43949840-AddedOnRampEdge 43949840 43949840-AddedOffRampEdge 346577897 402937996#0 402937996#1 346005902 346005902-AddedOffRampEdge 277609807 54603763-AddedOnRampEdge 54603763 74267990 74267990-AddedOffRampEdge 1153401503#0 277610685"/>
    </vehicle>
    <vehicle id="truck225" type="truck_truck" depart="21.77">
        <route edges="767762479-AddedOffRampEdge 43948503#1 43948503#2 660731151 43947369#1-AddedOnRampEdge 43947369#1 170601197#0 1122898985 1122898987 1122898986 1122898982 461214774 461214773#0 1159944499 170324607 170324607-AddedOffRampEdge 491463050 549031727 491463047"/>
    </vehicle>
    <vehicle id="truck228" type="truck_truck" depart="22.06">
        <route edges="618806178 347960410#1-AddedOnRampEdge 347960410#1 43211965 375714597 43949840-AddedOnRampEdge 43949840 43949840-AddedOffRampEdge 346577897 402937996#0 402937996#1 346005902 346005902-AddedOffRampEdge 277609814#1 277609540-AddedOnRampEdge 277609540"/>
    </vehicle>
    <vehicle id="truck229" type="truck_truck" depart="22.16">
        <route edges="43948499#0 43948499#0-AddedOffRampEdge 43948499#1 946728158 767762479 767762479-AddedOffRampEdge 43948503#1 43948503#2 660731151 43947369#1-AddedOnRampEdge 43947369#1 170601197#0 43947348#0 43947348#1-AddedOnRampEdge 43947348#1 43947348#1-AddedOffRampEdge 43947352#1 326869083#1 43947355#1 1156581474#0 1156581474#0-AddedOffRampEdge 43945019 43944996 43944997-AddedOnRampEdge 43944997 70237915 1250832434"/>
    </vehicle>
    <vehicle id="truck231" type="truck_truck" depart="22.35">
        <route edges="154281583 154281583-AddedOffRampEdge 569158514#1 277609538#1 186177617 186177620 402937995#0 402937995#1 402937994 1313783491 346577894 346577895 346577895-AddedOffRampEdge 347954273#1 186177614 403883037 961015525 961015525-AddedOffRampEdge 170300057#0 170300057#0-AddedOffRampEdge 170300056"/>
    </vehicle>
    <vehicle id="truck233" type="truck_truck" depart="22.54">
        <route edges="139865627 171850642#1 171850642#2 1250971022 1250971022-AddedOffRampEdge 43945022 43945021 1006864292#1-AddedOnRampEdge 1006864292#1 43945006 43944990#1 43947347#1 43947347#2 43947366 170601193 43947365-AddedOnRampEdge 43947365 43948506 43948495#0 43948495#1 43948495#2-AddedOnRampEdge"/>
    </vehicle>
    <vehicle id="truck234" type="truck_truck" depart="22.64">