<?xml version="1.0" encoding="UTF-8"?>

<!-- generated on 2024-12-02 10:41:35.969555 by main.py UNKNOWN
<configuration>
    <net-file value="/root/myvenv/nextpj/src/backend/data/scenario_1733136078/osm.net.xml.gz"/>
    <output-trip-file value="/root/myvenv/nextpj/src/backend/data/scenario_1733136078/osm.passenger.trips.xml"/>
    <route-file value="/root/myvenv/nextpj/src/backend/data/scenario_1733136078/osm.passenger.rou.xml"/>
    <prefix value="passenger"/>
    <vehicle-class value="passenger"/>
    <fringe-factor value="30.0"/>
    <validate value="True"/>
    <insertion-density value="100.0"/>
</configuration>
-->

<!-- generated on 2024-12-02 10:41:34 by Eclipse SUMO duarouter Version 1.21.0
<duarouterConfiguration xmlns:xsi="http://www.w3.org/2001/XMLSchema-instance" xsi:noNamespaceSchemaLocation="http://sumo.dlr.de/xsd/duarouterConfiguration.xsd">

    <input>
        <net-file value="/root/myvenv/nextpj/src/backend/data/scenario_1733136078/osm.net.xml.gz"/>
        <route-files value="/root/myvenv/nextpj/src/backend/data/scenario_1733136078/osm.passenger.trips.xml"/>
    </input>

    <output>
        <output-file value="/root/myvenv/nextpj/src/backend/data/scenario_1733136078/osm.passenger.trips.xml.tmp"/>
        <alternatives-output value="NUL"/>
        <write-trips value="true"/>
    </output>

    <time>
        <begin value="0.0"/>
        <end value="3600.0"/>
    </time>

    <report>
        <no-warnings value="true"/>
        <ignore-errors value="true"/>
        <no-step-log value="true"/>
    </report>

</duarouterConfiguration>
-->

<routes xmlns:xsi="http://www.w3.org/2001/XMLSchema-instance" xsi:noNamespaceSchemaLocation="http://sumo.dlr.de/xsd/routes_file.xsd">
    <vType id="passenger_passenger" vClass="passenger"/>
    <trip id="passenger2" type="passenger_passenger" depart="0.15" from="54490585#0" to="43945022"/>
    <trip id="passenger3" type="passenger_passenger" depart="0.23" from="754507517" to="1120029189"/>
    <trip id="passenger5" type="passenger_passenger" depart="0.39" from="139865627" to="27523870"/>
    <trip id="passenger6" type="passenger_passenger" depart="0.46" from="1030310860" to="1249788664"/>
    <trip id="passenger7" type="passenger_passenger" depart="0.54" from="492922776" to="277610685"/>
    <trip id="passenger11" type="passenger_passenger" depart="0.85" from="170300362" to="1153401503#1"/>
    <trip id="passenger13" type="passenger_passenger" depart="1.01" from="1058097564" to="1122898977"/>
    <trip id="passenger18" type="passenger_passenger" depart="1.39" from="706717749" to="37375978#1"/>
    <trip id="passenger19" type="passenger_passenger" depart="1.47" from="754507516" to="326869050"/>
    <trip id="passenger25" type="passenger_passenger" depart="1.94" from="170324601" to="1249788664"/>
    <trip id="passenger28" type="passenger_passenger" depart="2.17" from="1158381785" to="470810687"/>
    <trip id="passenger29" type="passenger_passenger" depart="2.24" from="1158381785" to="170324614"/>
    <trip id="passenger31" type="passenger_passenger" depart="2.40" from="43210976" to="43947365-AddedOnRampEdge"/>
    <trip id="passenger38" type="passenger_passenger" depart="2.94" from="800876753#0" to="230526727"/>
    <trip id="passenger41" type="passenger_passenger" depart="3.17" from="43945016" to="70707216"/>
    <trip id="passenger52" type="passenger_passenger" depart="4.02" from="154281583" to="375714594"/>
    <trip id="passenger55" type="passenger_passenger" depart="4.26" from="754507517" to="1250832434"/>
    <trip id="passenger60" type="passenger_passenger" depart="4.64" from="618806178" to="277609540"/>
    <trip id="passenger67" type="passenger_passenger" depart="5.19" from="1058097564" to="230526728"/>
    <trip id="passenger70" type="passenger_passenger" depart="5.42" from="277610684" to="277610685"/>
    <trip id="passenger71" type="passenger_passenger" depart="5.50" from="154281583" to="706717747#0"/>
    <trip id="passenger72" type="passenger_passenger" depart="5.57" from="228330842" to="1249788664"/>
    <trip id="passenger73" type="passenger_passenger" depart="5.65" from="361546030" to="470810687-AddedOffRampEdge"/>
    <trip id="passenger81" type="passenger_passenger" depart="6.27" from="139865627" to="767762481"/>
    <trip id="passenger82" type="passenger_passenger" depart="6.35" from="754507516" to="1116479401"/>
    <trip id="passenger84" type="passenger_passenger" depart="6.50" from="139865627" to="1122898979"/>
    <trip id="passenger88" type="passenger_passenger" depart="6.81" from="1058097564" to="171887696"/>
    <trip id="passenger89" type="passenger_passenger" depart="6.89" from="228330842" to="230526727"/>
    <trip id="passenger90" type="passenger_passenger" depart="6.97" from="54490585#0" to="43945006"/>
    <trip id="passenger93" type="passenger_passenger" depart="7.20" from="754507516" to="1250826063"/>
    <trip id="passenger94" type="passenger_passenger" depart="7.28" from="1251032985" to="206489379"/>
    <trip id="passenger95" type="passenger_passenger" depart="7.35" from="228330842" to="1250832434"/>
    <trip id="passenger99" type="passenger_passenger" depart="7.66" from="978688503-AddedOffRampEdge" to="706717744"/>
    <trip id="passenger101" type="passenger_passenger" depart="7.82" from="754507516" to="1156581474#1"/>
    <trip id="passenger107" type="passenger_passenger" depart="8.28" from="968537871#0" to="974897490"/>
    <trip id="passenger111" type="passenger_passenger" depart="8.59" from="361546030" to="491463047"/>
    <trip id="passenger117" type="passenger_passenger" depart="9.06" from="139939973" to="1122898979"/>
    <trip id="passenger118" type="passenger_passenger" depart="9.13" from="754507517" to="1250826063"/>
    <trip id="passenger120" type="passenger_passenger" depart="9.29" from="228330842" to="326869050"/>
    <trip id="passenger122" type="passenger_passenger" depart="9.44" from="1251032985" to="43948508"/>
    <trip id="passenger123" type="passenger_passenger" depart="9.52" from="139939973" to="170330062"/>
    <trip id="passenger124" type="passenger_passenger" depart="9.60" from="50981097" to="141726030"/>
    <trip id="passenger130" type="passenger_passenger" depart="10.06" from="754507517" to="70707216"/>
    <trip id="passenger139" type="passenger_passenger" depart="10.76" from="154281583" to="347960408"/>
    <trip id="passenger140" type="passenger_passenger" depart="10.84" from="54490585#0" to="1249788664"/>
    <trip id="passenger144" type="passenger_passenger" depart="11.15" from="228330842" to="1250832434"/>
    <trip id="passenger145" type="passenger_passenger" depart="11.22" from="1006864288" to="563554160"/>
    <trip id="passenger147" type="passenger_passenger" depart="11.38" from="54603770" to="277610685"/>
    <trip id="passenger148" type="passenger_passenger" depart="11.46" from="228330842" to="1006864287#1"/>
    <trip id="passenger153" type="passenger_passenger" depart="11.84" from="170300361#0" to="74267990"/>
    <trip id="passenger156" type="passenger_passenger" depart="12.07" from="139939973" to="1122898977"/>
    <trip id="passenger157" type="passenger_passenger" depart="12.15" from="620740370" to="70707216"/>
    <trip id="passenger162" type="passenger_passenger" depart="12.54" from="1019460046" to="491463047"/>
    <trip id="passenger166" type="passenger_passenger" depart="12.85" from="620740370" to="1122898977"/>
    <trip id="passenger174" type="passenger_passenger" depart="13.47" from="468231787" to="170330062"/>
    <trip id="passenger176" type="passenger_passenger" depart="13.62" from="800876754" to="1122898979"/>
    <trip id="passenger181" type="passenger_passenger" depart="14.01" from="43948499#0" to="27523870"/>
    <trip id="passenger183" type="passenger_passenger" depart="14.16" from="139939973" to="43948508"/>
    <trip id="passenger187" type="passenger_passenger" depart="14.47" from="170324601" to="1116479401"/>
    <trip id="passenger189" type="passenger_passenger" depart="14.63" from="170300361#0" to="706717744"/>
    <trip id="passenger190" type="passenger_passenger" depart="14.71" from="54490585#0" to="141726030"/>
    <trip id="passenger194" type="passenger_passenger" depart="15.02" from="800876754" to="43947347#1"/>
    <trip id="passenger196" type="passenger_passenger" depart="15.17" from="170300357" to="277610685"/>
    <trip id="passenger198" type="passenger_passenger" depart="15.33" from="228330842" to="326869050"/>
    <trip id="passenger203" type="passenger_passenger" depart="15.71" from="1058097563#1-AddedOnRampEdge" to="27523870"/>
    <trip id="passenger206" type="passenger_passenger" depart="15.94" from="50981097" to="1249788666"/>
    <trip id="passenger208" type="passenger_passenger" depart="16.10" from="139939973" to="230526728"/>
    <trip id="passenger209" type="passenger_passenger" depart="16.18" from="754507516" to="1116479401"/>
    <trip id="passenger215" type="passenger_passenger" depart="16.64" from="1058097564" to="171887696"/>
    <trip id="passenger223" type="passenger_passenger" depart="17.26" from="54490585#0" to="27523870"/>
    <trip id="passenger224" type="passenger_passenger" depart="17.34" from="706717749" to="277610685"/>
    <trip id="passenger225" type="passenger_passenger" depart="17.42" from="800876753#0" to="491463047"/>
    <trip id="passenger228" type="passenger_passenger" depart="17.65" from="618806178" to="277609540"/>
    <trip id="passenger229" type="passenger_passenger" depart="17.72" from="43948499#0" to="1250832434"/>
    <trip id="passenger231" type="passenger_passenger" depart="17.88" from="154281583" to="170300056"/>
    <trip id="passenger232" type="passenger_passenger" depart="17.96" from="361546030" to="1122898985"/>
    <trip id="passenger234" type="passenger_passenger" depart="18.11" from="50981101" to="1116479401"/>
    <trip id="passenger235" type="passenger_passenger" depart="18.19" from="186177615" to="277610685"/>
    <trip id="passenger236" type="passenger_passenger" depart="18.27" from="206489474" to="1249788664"/>
    <trip id="passenger237" type="passenger_passenger" depart="18.34" from="228330842" to="767762481"/>
    <trip id="passenger239" type="passenger_passenger" depart="18.50" from="754507516" to="563554160"/>
    <trip id="passenger240" type="passenger_passenger" depart="18.58" from="171850631" to="1006864287#1"/>
    <trip id="passenger243" type="passenger_passenger" depart="18.81" from="228330842" to="491463047"/>
    <trip id="passenger257" type="passenger_passenger" depart="19.89" from="618806178" to="706717744"/>
    <trip id="passenger260" type="passenger_passenger" depart="20.12" from="978688503-AddedOffRampEdge" to="170302308"/>
    <trip id="passenger267" type="passenger_passenger" depart="20.67" from="50981101" to="563554160"/>
    <trip id="passenger274" type="passenger_passenger" depart="21.21" from="50981101" to="1116479401"/>
    <trip id="passenger282" type="passenger_passenger" depart="21.83" from="754507516" to="620740374"/>
    <trip id="passenger285" type="passenger_passenger" depart="22.06" from="50981101" to="171887696"/>
    <trip id="passenger288" type="passenger_passenger" depart="22.29" from="361546030" to="230526728"/>
    <trip id="passenger289" type="passenger_passenger" depart="22.37" from="228330842" to="471373328"/>
    <trip id="passenger290" type="passenger_passenger" depart="22.45" from="154281583" to="706717746"/>
    <trip id="passenger292" type="passenger_passenger" depart="22.60" from="754507517" to="1250826063"/>
    <trip id="passenger295" type="passenger_passenger" depart="22.83" from="754507516" to="1159944512"/>
    <trip id="passenger298" type="passenger_passenger" depart="23.07" from="50981101" to="1250832434"/>
    <trip id="passenger306" type="passenger_passenger" depart="23.68" from="43945004" to="230526727"/>
    <trip id="passenger307" type="passenger_passenger" depart="23.76" from="361546030" to="171887696"/>
    <trip id="passenger309" type="passenger_passenger" depart="23.92" from="50981101" to="1250832434"/>
    <trip id="passenger310" type="passenger_passenger" depart="23.99" from="139939973" to="1122898979"/>
    <trip id="passenger311" type="passenger_passenger" depart="24.07" from="1251032985" to="1122898979"/>
    <trip id="passenger312" type="passenger_passenger" depart="24.15" from="361546030" to="563554160"/>
    <trip id="passenger318" type="passenger_passenger" depart="24.61" from="1159944514#0" to="1006864287#1"/>
    <trip id="passenger319" type="passenger_passenger" depart="24.69" from="361546030" to="1250832434"/>
    <trip id="passenger321" type="passenger_passenger" depart="24.85" from="50981101" to="1122898979"/>
    <trip id="passenger322" type="passenger_passenger" depart="24.92" from="754507516" to="230526728"/>
    <trip id="passenger323" type="passenger_passenger" depart="25.00" from="754507517" to="326869050"/>
    <trip id="passenger334" type="passenger_passenger" depart="25.85" from="361546030" to="206489381"/>
    <trip id="passenger340" type="passenger_passenger" depart="26.32" from="492922776" to="1153401503#1"/>
    <trip id="passenger341" type="passenger_passenger" depart="26.39" from="1158381785" to="1116479401"/>
    <trip id="passenger342" type="passenger_passenger" depart="26.47" from="1006864288" to="206489381"/>
    <trip id="passenger344" type="passenger_passenger" depart="26.63" from="139865627" to="43948508"/>
    <trip id="passenger345" type="passenger_passenger" depart="26.70" from="50981101" to="230526727"/>
    <trip id="passenger355" type="passenger_passenger" depart="27.48" from="50981097" to="43948508"/>
    <trip id="passenger356" type="passenger_passenger" depart="27.55" from="946728158" to="27523870"/>
    <trip id="passenger363" type="passenger_passenger" depart="28.10" from="50981097" to="1250832434"/>
    <trip id="passenger365" type="passenger_passenger" depart="28.25" from="277610684" to="375714594"/>
    <trip id="passenger366" type="passenger_passenger" depart="28.33" from="800876753#0" to="1159944512"/>
    <trip id="passenger376" type="passenger_passenger" depart="29.10" from="171850642#1" to="27523870"/>
    <trip id="passenger378" type="passenger_passenger" depart="29.26" from="37373854#0" to="170330062"/>
    <trip id="passenger383" type="passenger_passenger" depart="29.64" from="228330842" to="43948508"/>
    <trip id="passenger385" type="passenger_passenger" depart="29.80" from="43948499#0" to="1250826063"/>
    <trip id="passenger391" type="passenger_passenger" depart="30.26" from="54490585#0" to="27523870"/>
    <trip id="passenger392" type="passenger_passenger" depart="30.34" from="154281583" to="706717744"/>
    <trip id="passenger395" type="passenger_passenger" depart="30.57" from="800876754" to="27523870"/>
    <trip id="passenger404" type="passenger_passenger" depart="31.27" from="402937996#1" to="277610685"/>
    <trip id="passenger406" type="passenger_passenger" depart="31.42" from="1251032985" to="43948508"/>
    <trip id="passenger415" type="passenger_passenger" depart="32.12" from="754507517" to="171887696"/>
    <trip id="passenger416" type="passenger_passenger" depart="32.20" from="361546030" to="230526727"/>
    <trip id="passenger417" type="passenger_passenger" depart="32.28" from="54490585#0" to="170330062"/>
    <trip id="passenger418" type="passenger_passenger" depart="32.35" from="492922776" to="1153401503#1"/>
    <trip id="passenger424" type="passenger_passenger" depart="32.82" from="54490585#0" to="549031726"/>
    <trip id="passenger430" type="passenger_passenger" depart="33.28" from="754507517" to="171887696"/>
    <trip id="passenger431" type="passenger_passenger" depart="33.36" from="50981101" to="767762481"/>
    <trip id="passenger434" type="passenger_passenger" depart="33.59" from="1153401502#0" to="277609540"/>
    <trip id="passenger436" type="passenger_passenger" depart="33.75" from="1158381785" to="1116479401"/>
    <trip id="passenger438" type="passenger_passenger" depart="33.90" from="139939973" to="767762481"/>
    <trip id="passenger442" type="passenger_passenger" depart="34.21" from="800876753#0" to="43947347#2"/>
    <trip id="passenger443" type="passenger_passenger" depart="34.29" from="1158381785" to="171887696"/>
    <trip id="passenger445" type="passenger_passenger" depart="34.44" from="465114042" to="171887696"/>
    <trip id="passenger447" type="passenger_passenger" depart="34.60" from="1251032985" to="170324614"/>
    <trip id="passenger453" type="passenger_passenger" depart="35.06" from="50981097" to="491463047"/>
    <trip id="passenger460" type="passenger_passenger" depart="35.60" from="492922776" to="706717744"/>
    <trip id="passenger461" type="passenger_passenger" depart="35.68" from="43948499#0-AddedOffRampEdge" to="767762481"/>
    <trip id="passenger464" type="passenger_passenger" depart="35.91" from="54490585#0" to="1122897134"/>
    <trip id="passenger466" type="passenger_passenger" depart="36.07" from="1158381785" to="1122898979"/>
    <trip id="passenger468" type="passenger_passenger" depart="36.22" from="361546030" to="767762481"/>
    <trip id="passenger477" type="passenger_passenger" depart="36.92" from="170324601" to="563554164"/>
    <trip id="passenger480" type="passenger_passenger" depart="37.15" from="50981097" to="326869050"/>
    <trip id="passenger483" type="passenger_passenger" depart="37.38" from="1019460046" to="70707216"/>
    <trip id="passenger484" type="passenger_passenger" depart="37.46" from="43945004" to="767762481"/>
    <trip id="passenger485" type="passenger_passenger" depart="37.54" from="139865627" to="1116479401"/>
    <trip id="passenger490" type="passenger_passenger" depart="37.93" from="1058097564" to="70707216"/>
    <trip id="passenger492" type="passenger_passenger" depart="38.08" from="50980478" to="491463047"/>
    <trip id="passenger496" type="passenger_passenger" depart="38.39" from="326869083#1" to="170330062"/>
    <trip id="passenger497" type="passenger_passenger" depart="38.47" from="968537871#0" to="1041879011#1"/>
    <trip id="passenger498" type="passenger_passenger" depart="38.55" from="170324601" to="171887696"/>
    <trip id="passenger500" type="passenger_passenger" depart="38.70" from="1058097564" to="43947366"/>
    <trip id="passenger502" type="passenger_passenger" depart="38.86" from="170324601" to="170330062"/>
    <trip id="passenger503" type="passenger_passenger" depart="38.93" from="1251032985" to="1122898979"/>
    <trip id="passenger507" type="passenger_passenger" depart="39.24" from="620740370" to="1250826063"/>
    <trip id="passenger515" type="passenger_passenger" depart="39.86" from="139939973" to="1159944512"/>
    <trip id="passenger517" type="passenger_passenger" depart="40.02" from="1006864288" to="563554164"/>
    <trip id="passenger520" type="passenger_passenger" depart="40.25" from="54603770" to="277609540"/>
    <trip id="passenger522" type="passenger_passenger" depart="40.40" from="620740370" to="27523870"/>
    <trip id="passenger523" type="passenger_passenger" depart="40.48" from="1102263703" to="27523870"/>
    <trip id="passenger524" type="passenger_passenger" depart="40.56" from="968537871#0" to="1041879011#1"/>
    <trip id="passenger526" type="passenger_passenger" depart="40.71" from="361546030" to="230526727"/>
    <trip id="passenger529" type="passenger_passenger" depart="40.94" from="50981097" to="230526728"/>
    <trip id="passenger530" type="passenger_passenger" depart="41.02" from="800876753#0" to="1116479401"/>
    <trip id="passenger533" type="passenger_passenger" depart="41.25" from="43949840-AddedOffRampEdge" to="277610685"/>
    <trip id="passenger535" type="passenger_passenger" depart="41.41" from="361546030" to="206489475"/>
    <trip id="passenger536" type="passenger_passenger" depart="41.49" from="43948499#0" to="1122898977"/>
    <trip id="passenger539" type="passenger_passenger" depart="41.72" from="54490585#0" to="1249788666"/>
    <trip id="passenger542" type="passenger_passenger" depart="41.95" from="206489474" to="1122898977"/>
    <trip id="passenger545" type="passenger_passenger" depart="42.18" from="800876754" to="1116479401"/>
    <trip id="passenger547" type="passenger_passenger" depart="42.34" from="1058097564" to="491463047"/>
    <trip id="passenger558" type="passenger_passenger" depart="43.19" from="170324601" to="563554160"/>
    <trip id="passenger567" type="passenger_passenger" depart="43.89" from="754507516" to="326869050"/>
    <trip id="passenger576" type="passenger_passenger" depart="44.58" from="50981097" to="1250832434"/>
    <trip id="passenger580" type="passenger_passenger" depart="44.89" from="228330842" to="141726030"/>
    <trip id="passenger581" type="passenger_passenger" depart="44.97" from="50981097" to="230526728"/>
    <trip id="passenger584" type="passenger_passenger" depart="45.20" from="1006864288" to="141726030"/>
    <trip id="passenger585" type="passenger_passenger" depart="45.28" from="139865627" to="1122898984"/>
    <trip id="passenger586" type="passenger_passenger" depart="45.36" from="154281583" to="170300057#1"/>
    <trip id="passenger587" type="passenger_passenger" depart="45.43" from="1006864288" to="491463047"/>
    <trip id="passenger588" type="passenger_passenger" depart="45.51" from="1158381785" to="170324614"/>
    <trip id="passenger589" type="passenger_passenger" depart="45.59" from="50981101" to="27523870"/>
    <trip id="passenger595" type="passenger_passenger" depart="46.05" from="50981101" to="170605264"/>
    <trip id="passenger599" type="passenger_passenger" depart="46.36" from="800876754" to="1120029191"/>
    <trip id="passenger604" type="passenger_passenger" depart="46.75" from="1158381785" to="27523870"/>
    <trip id="passenger605" type="passenger_passenger" depart="46.83" from="1120029183" to="27523870"/>
    <trip id="passenger607" type="passenger_passenger" depart="46.98" from="54490585#0" to="620740374"/>
    <trip id="passenger612" type="passenger_passenger" depart="47.37" from="620740370" to="230526728"/>
    <trip id="passenger627" type="passenger_passenger" depart="48.53" from="800876753#0" to="206489379-AddedOnRampEdge"/>
    <trip id="passenger634" type="passenger_passenger" depart="49.07" from="139939973" to="171887696"/>
    <trip id="passenger636" type="passenger_passenger" depart="49.23" from="1158381785" to="170324607-AddedOffRampEdge"/>
    <trip id="passenger641" type="passenger_passenger" depart="49.61" from="50981097" to="141726030"/>
    <trip id="passenger645" type="passenger_passenger" depart="49.92" from="1153401502#0" to="170302308"/>
    <trip id="passenger649" type="passenger_passenger" depart="50.23" from="170601197#0" to="563554164"/>
    <trip id="passenger653" type="passenger_passenger" depart="50.54" from="489801316" to="171887696"/>
    <trip id="passenger655" type="passenger_passenger" depart="50.70" from="1159944514#1" to="1249788664"/>
    <trip id="passenger657" type="passenger_passenger" depart="50.85" from="139865627" to="1122898984"/>
    <trip id="passenger666" type="passenger_passenger" depart="51.55" from="228330842" to="170330062"/>
    <trip id="passenger667" type="passenger_passenger" depart="51.63" from="50981097" to="1250826063"/>
    <trip id="passenger672" type="passenger_passenger" depart="52.01" from="706717749" to="170302313"/>
    <trip id="passenger673" type="passenger_passenger" depart="52.09" from="968537871#0" to="974897490"/>
    <trip id="passenger681" type="passenger_passenger" depart="52.71" from="754507516" to="141726030"/>
    <trip id="passenger685" type="passenger_passenger" depart="53.02" from="139865627" to="206489381"/>
    <trip id="passenger697" type="passenger_passenger" depart="53.95" from="706717749" to="277610685"/>
    <trip id="passenger701" type="passenger_passenger" depart="54.26" from="228330842" to="563554164"/>
    <trip id="passenger704" type="passenger_passenger" depart="54.49" from="1006864288" to="27523870"/>
    <trip id="passenger706" type="passenger_passenger" depart="54.64" from="228330842" to="37373854#0-AddedOffRampEdge"/>
    <trip id="passenger710" type="passenger_passenger" depart="54.95" from="361546030" to="27523870"/>
    <trip id="passenger712" type="passenger_passenger" depart="55.11" from="171850631" to="230526727"/>
    <trip id="passenger714" type="passenger_passenger" depart="55.26" from="139939973" to="1006864287#1"/>
    <trip id="passenger717" type="passenger_passenger" depart="55.50" from="620740370" to="491463047"/>
    <trip id="passenger726" type="passenger_passenger" depart="56.19" from="1041879013#0" to="968537874#1"/>
    <trip id="passenger730" type="passenger_passenger" depart="56.50" from="170324601" to="563554160"/>
    <trip id="passenger733" type="passenger_passenger" depart="56.73" from="754507517" to="491463047"/>
    <trip id="passenger734" type="passenger_passenger" depart="56.81" from="767762479-AddedOffRampEdge" to="170324614"/>
    <trip id="passenger738" type="passenger_passenger" depart="57.12" from="54490585#0" to="1116479401"/>
    <trip id="passenger743" type="passenger_passenger" depart="57.51" from="228330842" to="43947386#1"/>
    <trip id="passenger747" type="passenger_passenger" depart="57.82" from="974897487#0" to="968537874#1"/>
    <trip id="passenger749" type="passenger_passenger" depart="57.97" from="170324601" to="563554164"/>
    <trip id="passenger751" type="passenger_passenger" depart="58.13" from="1153401502#0" to="347960408"/>
    <trip id="passenger754" type="passenger_passenger" depart="58.36" from="170324601" to="170324614"/>
    <trip id="passenger757" type="passenger_passenger" depart="58.59" from="170324601" to="563554160"/>
    <trip id="passenger760" type="passenger_passenger" depart="58.82" from="139939973" to="1122898978"/>
    <trip id="passenger761" type="passenger_passenger" depart="58.90" from="54490585#0" to="27523870"/>
    <trip id="passenger772" type="passenger_passenger" depart="59.75" from="361546030" to="70707216"/>
    <trip id="passenger773" type="passenger_passenger" depart="59.83" from="754507516" to="43948508"/>
    <trip id="passenger779" type="passenger_passenger" depart="60.29" from="170324601" to="586438409"/>
    <trip id="passenger782" type="passenger_passenger" depart="60.53" from="978688503-AddedOffRampEdge" to="43949840"/>
    <trip id="passenger783" type="passenger_passenger" depart="60.60" from="361546030" to="563554160"/>
    <trip id="passenger790" type="passenger_passenger" depart="61.15" from="228330842" to="767762481"/>
    <trip id="passenger798" type="passenger_passenger" depart="61.77" from="170300361#0" to="277609540"/>
    <trip id="passenger801" type="passenger_passenger" depart="62.00" from="492922776" to="459512011#0"/>
    <trip id="passenger805" type="passenger_passenger" depart="62.31" from="468231787" to="326869050"/>
    <trip id="passenger811" type="passenger_passenger" depart="62.77" from="50981097" to="141726030"/>
    <trip id="passenger813" type="passenger_passenger" depart="62.93" from="228330842" to="230526728"/>
    <trip id="passenger815" type="passenger_passenger" depart="63.08" from="170300361#0" to="43949840"/>
    <trip id="passenger835" type="passenger_passenger" depart="64.63" from="228330842" to="70707216"/>
    <trip id="passenger836" type="passenger_passenger" depart="64.71" from="54490585#0" to="563554160"/>
    <trip id="passenger837" type="passenger_passenger" depart="64.78" from="170324601" to="170330062"/>
    <trip id="passenger839" type="passenger_passenger" depart="64.94" from="406802122" to="1116479401"/>
    <trip id="passenger842" type="passenger_passenger" depart="65.17" from="50981097" to="1122898979"/>
    <trip id="passenger846" type="passenger_passenger" depart="65.48" from="1251032985" to="27523870"/>
    <trip id="passenger848" type="passenger_passenger" depart="65.64" from="1153401502#0" to="170300057#1"/>
    <trip id="passenger850" type="passenger_passenger" depart="65.79" from="43948499#0" to="27523870"/>
    <trip id="passenger853" type="passenger_passenger" depart="66.02" from="54490585#1-AddedOnRampEdge" to="141726030"/>
    <trip id="passenger855" type="passenger_passenger" depart="66.18" from="361546030" to="43948508"/>
    <trip id="passenger857" type="passenger_passenger" depart="66.33" from="170324601" to="43945006"/>
    <trip id="passenger862" type="passenger_passenger" depart="66.72" from="620740370" to="563554160"/>
    <trip id="passenger864" type="passenger_passenger" depart="66.87" from="43945004" to="1159944512"/>
    <trip id="passenger866" type="passenger_passenger" depart="67.03" from="706717749" to="1153401503#1"/>
    <trip id="passenger871" type="passenger_passenger" depart="67.42" from="206488705" to="563554160"/>
    <trip id="passenger873" type="passenger_passenger" depart="67.57" from="54490585#0" to="1116479401"/>
    <trip id="passenger877" type="passenger_passenger" depart="67.88" from="1158381785" to="767762481"/>
    <trip id="passenger881" type="passenger_passenger" depart="68.19" from="43948499#0" to="1164088375"/>
    <trip id="passenger885" type="passenger_passenger" depart="68.50" from="1251032985" to="43948508"/>
    <trip id="passenger886" type="passenger_passenger" depart="68.58" from="170300361#0" to="170302305-AddedOnRampEdge"/>
    <trip id="passenger889" type="passenger_passenger" depart="68.81" from="50981097" to="170324614"/>
    <trip id="passenger897" type="passenger_passenger" depart="69.43" from="50981101" to="1122898984"/>
    <trip id="passenger902" type="passenger_passenger" depart="69.82" from="54490585#0" to="1122898977"/>
    <trip id="passenger903" type="passenger_passenger" depart="69.89" from="620740370" to="1006864287#1"/>
    <trip id="passenger906" type="passenger_passenger" depart="70.12" from="754507517" to="230526728"/>
    <trip id="passenger912" type="passenger_passenger" depart="70.59" from="800876753#0" to="1159944512"/>
    <trip id="passenger913" type="passenger_passenger" depart="70.67" from="754507517" to="1159944512"/>