<?xml version="1.0" encoding="UTF-8"?>

<!-- generated on 2024-12-04 17:53:30.487093 by main.py UNKNOWN
<configuration>
    <net-file value="/root/myvenv/nextpj/src/backend/data/scenario_1733334805/osm.net.xml.gz"/>
    <output-trip-file value="/root/myvenv/nextpj/src/backend/data/scenario_1733334805/osm.bus.trips.xml"/>
    <route-file value="/root/myvenv/nextpj/src/backend/data/scenario_1733334805/osm.bus.rou.xml"/>
    <prefix value="bus"/>
    <vehicle-class value="bus"/>
    <fringe-factor value="17.0"/>
    <validate value="True"/>
    <insertion-density value="90.0"/>
</configuration>
-->

<!-- generated on 2024-12-04 17:53:30 by Eclipse SUMO duarouter Version 1.21.0
<duarouterConfiguration xmlns:xsi="http://www.w3.org/2001/XMLSchema-instance" xsi:noNamespaceSchemaLocation="http://sumo.dlr.de/xsd/duarouterConfiguration.xsd">

    <input>
        <net-file value="/root/myvenv/nextpj/src/backend/data/scenario_1733334805/osm.net.xml.gz"/>
        <route-files value="/root/myvenv/nextpj/src/backend/data/scenario_1733334805/osm.bus.trips.xml"/>
    </input>

    <output>
        <output-file value="/root/myvenv/nextpj/src/backend/data/scenario_1733334805/osm.bus.rou.xml"/>
        <alternatives-output value="NUL"/>
    </output>

    <time>
        <begin value="0.0"/>
        <end value="3600.0"/>
    </time>

    <report>
        <no-warnings value="true"/>
        <ignore-errors value="true"/>
        <no-step-log value="true"/>
    </report>

</duarouterConfiguration>
-->

<routes xmlns:xsi="http://www.w3.org/2001/XMLSchema-instance" xsi:noNamespaceSchemaLocation="http://sumo.dlr.de/xsd/routes_file.xsd">
    <vType id="bus_bus" vClass="bus"/>
    <vehicle id="bus4" type="bus_bus" depart="1.54">
        <route edges="42064236 170605264 170605269 1120029182"/>
    </vehicle>
    <vehicle id="bus8" type="bus_bus" depart="3.09">
        <route edges="277654571 170601193 43947365-AddedOnRampEdge 43947365"/>
    </vehicle>
    <vehicle id="bus9" type="bus_bus" depart="3.47">
        <route edges="43948501 43948501-AddedOffRampEdge 1118511056"/>
    </vehicle>
    <vehicle id="bus12" type="bus_bus" depart="4.63">
        <route edges="70707218 70707218-AddedOffRampEdge 42064105 42064105-AddedOffRampEdge 43947386#1 206489379-AddedOnRampEdge 206489379 170605263"/>
    </vehicle>
    <vehicle id="bus14" type="bus_bus" depart="5.40">
        <route edges="70707218 70707218-AddedOffRampEdge 1120029181 1120029186 43947365-AddedOnRampEdge 43947365"/>
    </vehicle>
    <vehicle id="bus18" type="bus_bus" depart="6.95">
        <route edges="70707218 70707218-AddedOffRampEdge 1120029181 1120029186 43947365-AddedOnRampEdge 43947365"/>
    </vehicle>
    <vehicle id="bus24" type="bus_bus" depart="9.26">
        <route edges="43947386#1 206489379-AddedOnRampEdge 206489379 170605263"/>
    </vehicle>
    <vehicle id="bus29" type="bus_bus" depart="11.19">
        <route edges="206489379-AddedOnRampEdge 206489379 170605263"/>
    </vehicle>
    <vehicle id="bus30" type="bus_bus" depart="11.58">
        <route edges="70707218 70707218-AddedOffRampEdge 1120029181 1120029186 43947365-AddedOnRampEdge 43947365"/>
    </vehicle>
    <vehicle id="bus31" type="bus_bus" depart="11.96">
        <route edges="42064236 170605264 170605269 206489382 206489382-AddedOffRampEdge 42064232 1120029186 43947365-AddedOnRampEdge 43947365"/>
    </vehicle>
    <vehicle id="bus36" type="bus_bus" depart="13.89">
        <route edges="70707218 70707218-AddedOffRampEdge 42064105 42064105-AddedOffRampEdge 43947386#1 206489379-AddedOnRampEdge 206489379 170605263"/>
    </vehicle>
    <vehicle id="bus37" type="bus_bus" depart="14.28">
        <route edges="43948501 43948501-AddedOffRampEdge 1118511056 1118511056-AddedOffRampEdge 1120029196 1139168722 206489379-AddedOnRampEdge 206489379 170605263"/>
    </vehicle>
    <vehicle id="bus40" type="bus_bus" depart="15.43">
        <route edges="42064236 170605264 170605269 1120029182 1120029183 43947369#1-AddedOnRampEdge 43947369#1 170601197"/>
    </vehicle>
    <vehicle id="bus42" type="bus_bus" depart="16.21">
        <route edges="42064105 42064105-AddedOffRampEdge 406802122 1120029183 43947369#1-AddedOnRampEdge 43947369#1 170601197"/>
    </vehicle>
    <vehicle id="bus46" type="bus_bus" depart="17.75">
        <route edges="43948501 43948501-AddedOffRampEdge 1118511056 1118511056-AddedOffRampEdge 1120029196 1139168722 206489379-AddedOnRampEdge 206489379 170605263"/>
    </vehicle>
    <vehicle id="bus52" type="bus_bus" depart="20.07">
        <route edges="277654571 170601193 43947365-AddedOnRampEdge 43947365"/>
    </vehicle>
    <vehicle id="bus53" type="bus_bus" depart="20.45">
        <route edges="1122897134 1120029191 1139168722 206489379-AddedOnRampEdge 206489379 170605263"/>
    </vehicle>
    <vehicle id="bus55" type="bus_bus" depart="21.22">
        <route edges="70707218 70707218-AddedOffRampEdge 42064105 42064105-AddedOffRampEdge 406802122 1120029183 43947369#1-AddedOnRampEdge 43947369#1 170601197"/>
    </vehicle>
    <vehicle id="bus56" type="bus_bus" depart="21.61">
        <route edges="42064236 170605264 170605269 1120029182 1120029183 43947369#1-AddedOnRampEdge 43947369#1 170601197"/>
    </vehicle>
    <vehicle id="bus58" type="bus_bus" depart="22.38">
        <route edges="277654571 170601193 43947365-AddedOnRampEdge 43947365"/>
    </vehicle>
    <vehicle id="bus59" type="bus_bus" depart="22.77">
        <route edges="43947369#1 170601197"/>
    </vehicle>
    <vehicle id="bus62" type="bus_bus" depart="23.92">
        <route edges="1118511056 1118511056-AddedOffRampEdge 1120029196 1139168722 206489379-AddedOnRampEdge 206489379 170605263"/>
    </vehicle>
    <vehicle id="bus65" type="bus_bus" depart="25.08">
        <route edges="277654571 1122897134 41844004 1120029190 1120029189"/>
    </vehicle>
    <vehicle id="bus67" type="bus_bus" depart="25.85">
        <route edges="1120029191 1139168722 206489379-AddedOnRampEdge"/>
    </vehicle>
    <vehicle id="bus68" type="bus_bus" depart="26.24">
        <route edges="1120029190 1120029189 43947368-AddedOnRampEdge 43947368"/>
    </vehicle>
    <vehicle id="bus71" type="bus_bus" depart="27.40">
        <route edges="277654571 1122897134 41844004 1120029190 1120029189 43947368-AddedOnRampEdge 43947368"/>
    </vehicle>
    <vehicle id="bus72" type="bus_bus" depart="27.78">
        <route edges="42064236 170605264 170605269 1120029182 1120029183 43947369#1-AddedOnRampEdge 43947369#1 170601197"/>
    </vehicle>
    <vehicle id="bus73" type="bus_bus" depart="28.17">
        <route edges="42064236 170605264 170605269 206489382 206489382-AddedOffRampEdge 42064232 1120029186 43947365-AddedOnRampEdge 43947365"/>
    </vehicle>
    <vehicle id="bus75" type="bus_bus" depart="28.94">
        <route edges="70707218-AddedOffRampEdge 1120029181 1120029186 43947365-AddedOnRampEdge 43947365"/>
    </vehicle>
    <vehicle id="bus76" type="bus_bus" depart="29.33">
        <route edges="42064236 170605264 170605269 206489382 206489382-AddedOffRampEdge"/>
    </vehicle>
    <vehicle id="bus78" type="bus_bus" depart="30.10">
        <route edges="277654571 170601193 43947365-AddedOnRampEdge 43947365"/>
    </vehicle>
    <vehicle id="bus81" type="bus_bus" depart="31.26">
        <route edges="277654571 1122897134 41844004 1120029190 1120029189 43947368-AddedOnRampEdge 43947368"/>
    </vehicle>
    <vehicle id="bus83" type="bus_bus" depart="32.03">
        <route edges="277654571 170601193 43947365-AddedOnRampEdge 43947365"/>
    </vehicle>
    <vehicle id="bus84" type="bus_bus" depart="32.41">
        <route edges="277654571 170601193"/>
    </vehicle>
    <vehicle id="bus85" type="bus_bus" depart="32.80">
        <route edges="70707218 70707218-AddedOffRampEdge 42064105 42064105-AddedOffRampEdge"/>
    </vehicle>
    <vehicle id="bus86" type="bus_bus" depart="33.18">
        <route edges="42064236 170605264 170605269 206489382 206489382-AddedOffRampEdge 43947390#1 277653336 206489380 43947382 43947368-AddedOnRampEdge 43947368"/>
    </vehicle>
    <vehicle id="bus87" type="bus_bus" depart="33.57">
        <route edges="43948501 43948501-AddedOffRampEdge 660731151 43947369#1-AddedOnRampEdge 43947369#1 170601197"/>
    </vehicle>
    <vehicle id="bus89" type="bus_bus" depart="34.34">
        <route edges="42064236 170605264 170605269"/>
    </vehicle>
    <vehicle id="bus92" type="bus_bus" depart="35.50">
        <route edges="42064105-AddedOffRampEdge 43947386#1 206489379-AddedOnRampEdge 206489379 170605263"/>
    </vehicle>
    <vehicle id="bus93" type="bus_bus" depart="35.89">
        <route edges="70707218 70707218-AddedOffRampEdge 42064105 42064105-AddedOffRampEdge 406802122 1120029183 43947369#1-AddedOnRampEdge 43947369#1 170601197"/>
    </vehicle>
    <vehicle id="bus95" type="bus_bus" depart="36.66">
        <route edges="42064236 170605264 170605269 1120029182 1120029183 43947369#1-AddedOnRampEdge 43947369#1 170601197"/>
    </vehicle>
    <vehicle id="bus96" type="bus_bus" depart="37.04">
        <route edges="277654571 1122897134 41844004 1120029190 1120029189 43947368-AddedOnRampEdge"/>
    </vehicle>
    <vehicle id="bus97" type="bus_bus" depart="37.43">
        <route edges="42064236 170605264 170605269 206489382 206489382-AddedOffRampEdge 43947390#1 277653336 206489380 43947382 43947368-AddedOnRampEdge 43947368"/>
    </vehicle>
    <vehicle id="bus98" type="bus_bus" depart="37.81">
        <route edges="42064236 170605264 170605269 206489382 206489382-AddedOffRampEdge 42064232 1120029186"/>
    </vehicle>
    <vehicle id="bus100" type="bus_bus" depart="38.59">
        <route edges="70707218 70707218-AddedOffRampEdge 42064105 42064105-AddedOffRampEdge 406802122 1120029183 43947369#1-AddedOnRampEdge 43947369#1"/>
    </vehicle>
    <vehicle id="bus101" type="bus_bus" depart="38.97">
        <route edges="70707218 70707218-AddedOffRampEdge 42064105 42064105-AddedOffRampEdge 406802122 1120029183 43947369#1-AddedOnRampEdge 43947369#1 170601197"/>
    </vehicle>
    <vehicle id="bus102" type="bus_bus" depart="39.36">
        <route edges="42064236 170605264 170605269 1120029182 1120029183 43947369#1-AddedOnRampEdge 43947369#1 170601197"/>
    </vehicle>
    <vehicle id="bus105" type="bus_bus" depart="40.52">
        <route edges="277654571 1122897134 41844004 1120029190 1120029189 43947368-AddedOnRampEdge 43947368"/>
    </vehicle>
    <vehicle id="bus107" type="bus_bus" depart="41.29">
        <route edges="70707218 70707218-AddedOffRampEdge"/>
    </vehicle>
    <vehicle id="bus108" type="bus_bus" depart="41.67">
        <route edges="42064236 170605264 170605269 206489382 206489382-AddedOffRampEdge 42064232 1120029186 43947365-AddedOnRampEdge 43947365"/>
    </vehicle>
    <vehicle id="bus109" type="bus_bus" depart="42.06">
        <route edges="206489379 170605263"/>
    </vehicle>
    <vehicle id="bus111" type="bus_bus" depart="42.83">
        <route edges="42064236 170605264 170605269 206489382 206489382-AddedOffRampEdge 42064232 1120029186 43947365-AddedOnRampEdge"/>
    </vehicle>
    <vehicle id="bus113" type="bus_bus" depart="43.60">
        <route edges="42064236 170605264 170605269 206489382 206489382-AddedOffRampEdge 43947390#1 277653336 206489380 43947382 43947368-AddedOnRampEdge 43947368"/>
    </vehicle>
    <vehicle id="bus117" type="bus_bus" depart="45.15">
        <route edges="277654571 1122897134 1120029191 1139168722"/>
    </vehicle>
    <vehicle id="bus118" type="bus_bus" depart="45.53">
        <route edges="70707218 70707218-AddedOffRampEdge 42064105 42064105-AddedOffRampEdge 406802122 1120029183 43947369#1-AddedOnRampEdge 43947369#1 170601197"/>
    </vehicle>
    <vehicle id="bus120" type="bus_bus" depart="46.30">
        <route edges="42064236 170605264 170605269 206489382 206489382-AddedOffRampEdge 42064232 1120029186 43947365-AddedOnRampEdge 43947365"/>
    </vehicle>
    <vehicle id="bus121" type="bus_bus" depart="46.69">
        <route edges="42064236 170605264 170605269 1120029182 1120029183 43947369#1-AddedOnRampEdge"/>
    </vehicle>
    <vehicle id="bus123" type="bus_bus" depart="47.46">
        <route edges="277654571 1122897134 1120029191 1139168722 206489379-AddedOnRampEdge 206489379 170605263"/>
    </vehicle>
    <vehicle id="bus124" type="bus_bus" depart="47.85">
        <route edges="43948501 43948501-AddedOffRampEdge 1118511056 1118511056-AddedOffRampEdge 1120029196 1139168722 206489379-AddedOnRampEdge 206489379 170605263"/>
    </vehicle>
    <vehicle id="bus125" type="bus_bus" depart="48.23">
        <route edges="277654571 170601193 43947365-AddedOnRampEdge"/>
    </vehicle>
    <vehicle id="bus127" type="bus_bus" depart="49.01">
        <route edges="70707218-AddedOffRampEdge"/>
    </vehicle>
    <vehicle id="bus132" type="bus_bus" depart="50.93">
        <route edges="70707218 70707218-AddedOffRampEdge 1120029181 1120029186 43947365-AddedOnRampEdge 43947365"/>
    </vehicle>
    <vehicle id="bus134" type="bus_bus" depart="51.71">
        <route edges="43948501 43948501-AddedOffRampEdge 1118511056"/>
    </vehicle>
    <vehicle id="bus135" type="bus_bus" depart="52.09">
        <route edges="43948501-AddedOffRampEdge 1118511056 1118511056-AddedOffRampEdge 1120029196 1139168722 206489379-AddedOnRampEdge 206489379 170605263"/>
    </vehicle>
    <vehicle id="bus136" type="bus_bus" depart="52.48">
        <route edges="43948501 43948501-AddedOffRampEdge 660731151 43947369#1-AddedOnRampEdge"/>
    </vehicle>
    <vehicle id="bus139" type="bus_bus" depart="53.64">
        <route edges="277654571 170601193 43947365-AddedOnRampEdge 43947365"/>
    </vehicle>
    <vehicle id="bus140" type="bus_bus" depart="54.02">
        <route edges="43948501 43948501-AddedOffRampEdge 660731151 43947369#1-AddedOnRampEdge 43947369#1 170601197"/>
    </vehicle>
    <vehicle id="bus142" type="bus_bus" depart="54.79">
        <route edges="42064236 170605264 170605269 206489382 206489382-AddedOffRampEdge 43947390#1 277653336 206489380 43947382 43947368-AddedOnRampEdge 43947368"/>
    </vehicle>
    <vehicle id="bus144" type="bus_bus" depart="55.56">
        <route edges="42064236 170605264 170605269 1120029182 1120029183 43947369#1-AddedOnRampEdge 43947369#1 170601197"/>
    </vehicle>
    <vehicle id="bus145" type="bus_bus" depart="55.95">
        <route edges="1118511056 1118511056-AddedOffRampEdge 1122897133 1120029190 1120029189 43947368-AddedOnRampEdge 43947368"/>
    </vehicle>
    <vehicle id="bus149" type="bus_bus" depart="57.49">
        <route edges="1120029190 1120029189 43947368-AddedOnRampEdge 43947368"/>
    </vehicle>
    <vehicle id="bus151" type="bus_bus" depart="58.27">
        <route edges="70707218 70707218-AddedOffRampEdge 1120029181 1120029186 43947365-AddedOnRampEdge 43947365"/>
    </vehicle>
    <vehicle id="bus153" type="bus_bus" depart="59.04">
        <route edges="277654571 1122897134 41844004 1120029190 1120029189 43947368-AddedOnRampEdge 43947368"/>
    </vehicle>
    <vehicle id="bus154" type="bus_bus" depart="59.42">
        <route edges="43948501 43948501-AddedOffRampEdge 1118511056 1118511056-AddedOffRampEdge 1122897133 1120029190 1120029189 43947368-AddedOnRampEdge 43947368"/>
    </vehicle>
    <vehicle id="bus155" type="bus_bus" depart="59.81">
        <route edges="70707218 70707218-AddedOffRampEdge 42064105 42064105-AddedOffRampEdge 406802122 1120029183 43947369#1-AddedOnRampEdge 43947369#1 170601197"/>
    </vehicle>
    <vehicle id="bus157" type="bus_bus" depart="60.58">
        <route edges="43948501 43948501-AddedOffRampEdge 1118511056 1118511056-AddedOffRampEdge 1122897133 1120029190 1120029189 43947368-AddedOnRampEdge 43947368"/>
    </vehicle>
    <vehicle id="bus161" type="bus_bus" depart="62.12">
        <route edges="43948501-AddedOffRampEdge 1118511056 1118511056-AddedOffRampEdge 1122897133 1120029190 1120029189 43947368-AddedOnRampEdge 43947368"/>
    </vehicle>
    <vehicle id="bus162" type="bus_bus" depart="62.51">
        <route edges="1120029181 1120029186 43947365-AddedOnRampEdge 43947365"/>
    </vehicle>
    <vehicle id="bus164" type="bus_bus" depart="63.28">
        <route edges="43948501 43948501-AddedOffRampEdge 1118511056 1118511056-AddedOffRampEdge 1122897133 1120029190 1120029189 43947368-AddedOnRampEdge 43947368"/>
    </vehicle>
    <vehicle id="bus165" type="bus_bus" depart="63.67">
        <route edges="43948501-AddedOffRampEdge 660731151 43947369#1-AddedOnRampEdge 43947369#1 170601197"/>
    </vehicle>
    <vehicle id="bus168" type="bus_bus" depart="64.83">
        <route edges="277654571 1122897134 41844004 1120029190 1120029189 43947368-AddedOnRampEdge 43947368"/>
    </vehicle>
    <vehicle id="bus170" type="bus_bus" depart="65.60">
        <route edges="43948501 43948501-AddedOffRampEdge 660731151 43947369#1-AddedOnRampEdge 43947369#1 170601197"/>
    </vehicle>
    <vehicle id="bus172" type="bus_bus" depart="66.37">
        <route edges="277654571 1122897134 41844004 1120029190 1120029189 43947368-AddedOnRampEdge 43947368"/>
    </vehicle>
    <vehicle id="bus173" type="bus_bus" depart="66.76">
        <route edges="70707218 70707218-AddedOffRampEdge 42064105 42064105-AddedOffRampEdge 406802122 1120029183 43947369#1-AddedOnRampEdge 43947369#1 170601197"/>
    </vehicle>
    <vehicle id="bus175" type="bus_bus" depart="67.53">
        <route edges="70707218 70707218-AddedOffRampEdge 42064105 42064105-AddedOffRampEdge 406802122"/>
    </vehicle>
    <vehicle id="bus177" type="bus_bus" depart="68.30">
        <route edges="70707218 70707218-AddedOffRampEdge 42064105 42064105-AddedOffRampEdge 406802122 1120029183 43947369#1-AddedOnRampEdge 43947369#1 170601197"/>
    </vehicle>
    <vehicle id="bus178" type="bus_bus" depart="68.68">
        <route edges="70707218 70707218-AddedOffRampEdge 42064105 42064105-AddedOffRampEdge 406802122 1120029183 43947369#1-AddedOnRampEdge 43947369#1 170601197"/>
    </vehicle>
    <vehicle id="bus179" type="bus_bus" depart="69.07">
        <route edges="1122897134 1120029191 1139168722 206489379-AddedOnRampEdge 206489379 170605263"/>
    </vehicle>
    <vehicle id="bus180" type="bus_bus" depart="69.46">
        <route edges="43948501 43948501-AddedOffRampEdge 1118511056 1118511056-AddedOffRampEdge 1120029196 1139168722 206489379-AddedOnRampEdge 206489379 170605263"/>
    </vehicle>
    <vehicle id="bus183" type="bus_bus" depart="70.61">
        <route edges="277654571 170601193 43947365-AddedOnRampEdge 43947365"/>
    </vehicle>
    <vehicle id="bus185" type="bus_bus" depart="71.39">
        <route edges="42064236 170605264 170605269 206489382 206489382-AddedOffRampEdge 42064232 1120029186 43947365-AddedOnRampEdge 43947365"/>
    </vehicle>
    <vehicle id="bus187" type="bus_bus" depart="72.16">
        <route edges="277654571 1122897134 41844004 1120029190"/>
    </vehicle>
    <vehicle id="bus188" type="bus_bus" depart="72.54">
        <route edges="43948501 43948501-AddedOffRampEdge 1118511056 1118511056-AddedOffRampEdge 1120029196 1139168722 206489379-AddedOnRampEdge 206489379 170605263"/>
    </vehicle>
    <vehicle id="bus189" type="bus_bus" depart="72.93">
        <route edges="277654571 1122897134 41844004 1120029190 1120029189 43947368-AddedOnRampEdge 43947368"/>
    </vehicle>
    <vehicle id="bus190" type="bus_bus" depart="73.31">
        <route edges="43948501 43948501-AddedOffRampEdge 1118511056 1118511056-AddedOffRampEdge 1120029196 1139168722 206489379-AddedOnRampEdge 206489379 170605263"/>
    </vehicle>
    <vehicle id="bus191" type="bus_bus" depart="73.70">
        <route edges="277654571 1122897134 1120029191 1139168722 206489379-AddedOnRampEdge 206489379 170605263"/>
    </vehicle>
    <vehicle id="bus192" type="bus_bus" depart="74.09">
        <route edges="42064105-AddedOffRampEdge 43947386#1 206489379-AddedOnRampEdge 206489379 170605263"/>
    </vehicle>
    <vehicle id="bus194" type="bus_bus" depart="74.86">
        <route edges="70707218 70707218-AddedOffRampEdge 1120029181 1120029186 43947365-AddedOnRampEdge 43947365"/>
    </vehicle>
    <vehicle id="bus195" type="bus_bus" depart="75.24">
        <route edges="70707218 70707218-AddedOffRampEdge 1120029181 1120029186 43947365-AddedOnRampEdge 43947365"/>
    </vehicle>
    <vehicle id="bus196" type="bus_bus" depart="75.63">
        <route edges="277654571 1122897134 41844004"/>
    </vehicle>
    <vehicle id="bus198" type="bus_bus" depart="76.40">
        <route edges="42064236 170605264 170605269 206489382 206489382-AddedOffRampEdge 42064232"/>
    </vehicle>
    <vehicle id="bus200" type="bus_bus" depart="77.17">
        <route edges="42064236 170605264 170605269 1120029182 1120029183 43947369#1-AddedOnRampEdge 43947369#1 170601197"/>
    </vehicle>
    <vehicle id="bus201" type="bus_bus" depart="77.56">
        <route edges="42064236 170605264 170605269 206489382 206489382-AddedOffRampEdge 43947390#1 277653336 206489380 43947382 43947368-AddedOnRampEdge 43947368"/>
    </vehicle>
    <vehicle id="bus202" type="bus_bus" depart="77.95">
        <route edges="43948501 43948501-AddedOffRampEdge 660731151 43947369#1-AddedOnRampEdge 43947369#1 170601197"/>
    </vehicle>
    <vehicle id="bus204" type="bus_bus" depart="78.72">
        <route edges="43947386#1 206489379-AddedOnRampEdge 206489379 170605263"/>
    </vehicle>
    <vehicle id="bus206" type="bus_bus" depart="79.49">
        <route edges="43948501 43948501-AddedOffRampEdge 660731151 43947369#1-AddedOnRampEdge 43947369#1 170601197"/>
    </vehicle>
    <vehicle id="bus210" type="bus_bus" depart="81.03">
        <route edges="42064232 1120029186 43947365-AddedOnRampEdge 43947365"/>
    </vehicle>
    <vehicle id="bus211" type="bus_bus" depart="81.42">
        <route edges="206489382-AddedOffRampEdge 42064232 1120029186 43947365-AddedOnRampEdge 43947365"/>
    </vehicle>
    <vehicle id="bus212" type="bus_bus" depart="81.80">
        <route edges="42064236 170605264 170605269 1120029182 1120029183 43947369#1-AddedOnRampEdge 43947369#1 170601197"/>
    </vehicle>
    <vehicle id="bus213" type="bus_bus" depart="82.19">
        <route edges="43948501 43948501-AddedOffRampEdge 1118511056"/>
    </vehicle>
    <vehicle id="bus214" type="bus_bus" depart="82.58">
        <route edges="43948501 43948501-AddedOffRampEdge 1118511056 1118511056-AddedOffRampEdge 1122897133 1120029190 1120029189 43947368-AddedOnRampEdge 43947368"/>
    </vehicle>
    <vehicle id="bus215" type="bus_bus" depart="82.96">
        <route edges="1122897134 1120029191 1139168722 206489379-AddedOnRampEdge 206489379 170605263"/>
    </vehicle>
    <vehicle id="bus217" type="bus_bus" depart="83.73">
        <route edges="42064236 170605264 170605269 206489382 206489382-AddedOffRampEdge 42064232 1120029186"/>
    </vehicle>
    <vehicle id="bus218" type="bus_bus" depart="84.12">
        <route edges="277654571 1122897134 41844004 1120029190 1120029189 43947368-AddedOnRampEdge 43947368"/>
    </vehicle>
    <vehicle id="bus219" type="bus_bus" depart="84.50">
        <route edges="42064236 170605264 170605269 206489382 206489382-AddedOffRampEdge 43947390#1 277653336 206489380 43947382 43947368-AddedOnRampEdge 43947368"/>
    </vehicle>
    <vehicle id="bus220" type="bus_bus" depart="84.89">
        <route edges="43948501 43948501-AddedOffRampEdge 660731151"/>
    </vehicle>
    <vehicle id="bus222" type="bus_bus" depart="85.66">
        <route edges="70707218 70707218-AddedOffRampEdge 1120029181 1120029186 43947365-AddedOnRampEdge 43947365"/>
    </vehicle>
    <vehicle id="bus225" type="bus_bus" depart="86.82">
        <route edges="70707218 70707218-AddedOffRampEdge 1120029181 1120029186 43947365-AddedOnRampEdge"/>
    </vehicle>
    <vehicle id="bus226" type="bus_bus" depart="87.21">
        <route edges="42064236 170605264 170605269 1120029182 1120029183 43947369#1-AddedOnRampEdge 43947369#1 170601197"/>
    </vehicle>
    <vehicle id="bus227" type="bus_bus" depart="87.59">
        <route edges="277654571 170601193 43947365-AddedOnRampEdge 43947365"/>
    </vehicle>
    <vehicle id="bus231" type="bus_bus" depart="89.14">
        <route edges="277654571 1122897134 1120029191 1139168722 206489379-AddedOnRampEdge 206489379 170605263"/>
    </vehicle>
    <vehicle id="bus232" type="bus_bus" depart="89.52">
        <route edges="42064236 170605264 170605269 1120029182 1120029183 43947369#1-AddedOnRampEdge 43947369#1 170601197"/>
    </vehicle>
    <vehicle id="bus233" type="bus_bus" depart="89.91">
        <route edges="277654571 170601193 43947365-AddedOnRampEdge 43947365"/>
    </vehicle>
    <vehicle id="bus234" type="bus_bus" depart="90.29">
        <route edges="43948501 43948501-AddedOffRampEdge 1118511056 1118511056-AddedOffRampEdge 1122897133 1120029190 1120029189"/>
    </vehicle>
    <vehicle id="bus235" type="bus_bus" depart="90.68">
        <route edges="42064105-AddedOffRampEdge 406802122"/>
    </vehicle>
    <vehicle id="bus237" type="bus_bus" depart="91.45">
        <route edges="42064236 170605264 170605269 206489382 206489382-AddedOffRampEdge 43947390#1 277653336 206489380 43947382 43947368-AddedOnRampEdge 43947368"/>
    </vehicle>
    <vehicle id="bus238" type="bus_bus" depart="91.84">
        <route edges="43947365-AddedOnRampEdge 43947365"/>
    </vehicle>
    <vehicle id="bus241" type="bus_bus" depart="92.99">
        <route edges="277654571 1122897134 41844004 1120029190 1120029189 43947368-AddedOnRampEdge 43947368"/>
    </vehicle>
    <vehicle id="bus242" type="bus_bus" depart="93.38">
        <route edges="70707218 70707218-AddedOffRampEdge 42064105 42064105-AddedOffRampEdge 43947386#1"/>
    </vehicle>
    <vehicle id="bus243" type="bus_bus" depart="93.77">
        <route edges="42064232 1120029186 43947365-AddedOnRampEdge"/>
    </vehicle>
    <vehicle id="bus244" type="bus_bus" depart="94.15">
        <route edges="42064236 170605264 170605269 206489382 206489382-AddedOffRampEdge 42064232 1120029186 43947365-AddedOnRampEdge 43947365"/>
    </vehicle>
    <vehicle id="bus246" type="bus_bus" depart="94.92">
        <route edges="42064236 170605264 170605269 1120029182"/>
    </vehicle>
    <vehicle id="bus247" type="bus_bus" depart="95.31">
        <route edges="277654571 170601193 43947365-AddedOnRampEdge 43947365"/>
    </vehicle>
    <vehicle id="bus248" type="bus_bus" depart="95.70">
        <route edges="42064105-AddedOffRampEdge 406802122 1120029183 43947369#1-AddedOnRampEdge 43947369#1 170601197"/>
    </vehicle>
    <vehicle id="bus251" type="bus_bus" depart="96.85">
        <route edges="42064105 42064105-AddedOffRampEdge"/>
    </vehicle>
    <vehicle id="bus252" type="bus_bus" depart="97.24">
        <route edges="1120029181 1120029186 43947365-AddedOnRampEdge 43947365"/>
    </vehicle>
    <vehicle id="bus253" type="bus_bus" depart="97.62">
        <route edges="170605264"/>
    </vehicle>
    <vehicle id="bus255" type="bus_bus" depart="98.40">
        <route edges="277654571 1122897134 1120029191 1139168722 206489379-AddedOnRampEdge 206489379 170605263"/>
    </vehicle>
    <vehicle id="bus256" type="bus_bus" depart="98.78">
        <route edges="43948501 43948501-AddedOffRampEdge 1118511056 1118511056-AddedOffRampEdge 1120029196 1139168722 206489379-AddedOnRampEdge 206489379 170605263"/>
    </vehicle>
    <vehicle id="bus257" type="bus_bus" depart="99.17">
        <route edges="43948501 43948501-AddedOffRampEdge 1118511056 1118511056-AddedOffRampEdge 1122897133 1120029190 1120029189 43947368-AddedOnRampEdge 43947368"/>
    </vehicle>
    <vehicle id="bus258" type="bus_bus" depart="99.55">
        <route edges="277654571 1122897134 1120029191"/>
    </vehicle>
    <vehicle id="bus260" type="bus_bus" depart="100.33">
        <route edges="70707218-AddedOffRampEdge 42064105 42064105-AddedOffRampEdge 43947386#1 206489379-AddedOnRampEdge 206489379 170605263"/>
    </vehicle>
    <vehicle id="bus261" type="bus_bus" depart="100.71">
        <route edges="43948501 43948501-AddedOffRampEdge 1118511056 1118511056-AddedOffRampEdge 1122897133 1120029190 1120029189 43947368-AddedOnRampEdge 43947368"/>
    </vehicle>
    <vehicle id="bus262" type="bus_bus" depart="101.10">
        <route edges="43948501 43948501-AddedOffRampEdge 1118511056 1118511056-AddedOffRampEdge 1122897133 1120029190 1120029189 43947368-AddedOnRampEdge 43947368"/>
    </vehicle>
    <vehicle id="bus263" type="bus_bus" depart="101.48">
        <route edges="70707218 70707218-AddedOffRampEdge 42064105 42064105-AddedOffRampEdge 406802122 1120029183 43947369#1-AddedOnRampEdge 43947369#1 170601197"/>
    </vehicle>
    <vehicle id="bus265" type="bus_bus" depart="102.25">
        <route edges="170601193 43947365-AddedOnRampEdge 43947365"/>
    </vehicle>
    <vehicle id="bus266" type="bus_bus" depart="102.64">
        <route edges="42064236 170605264 170605269 1120029182 1120029183 43947369#1-AddedOnRampEdge 43947369#1 170601197"/>
    </vehicle>
    <vehicle id="bus267" type="bus_bus" depart="103.03">
        <route edges="43948501 43948501-AddedOffRampEdge 1118511056 1118511056-AddedOffRampEdge 1122897133 1120029190 1120029189 43947368-AddedOnRampEdge 43947368"/>
    </vehicle>
    <vehicle id="bus269" type="bus_bus" depart="103.80">
        <route edges="43948501 43948501-AddedOffRampEdge 1118511056 1118511056-AddedOffRampEdge 1120029196 1139168722"/>
    </vehicle>
    <vehicle id="bus272" type="bus_bus" depart="104.96">
        <route edges="277654571 170601193 43947365-AddedOnRampEdge 43947365"/>
    </vehicle>
    <vehicle id="bus273" type="bus_bus" depart="105.34">
        <route edges="70707218 70707218-AddedOffRampEdge 42064105 42064105-AddedOffRampEdge 43947386#1 206489379-AddedOnRampEdge 206489379 170605263"/>
    </vehicle>
    <vehicle id="bus274" type="bus_bus" depart="105.73">
        <route edges="43948501 43948501-AddedOffRampEdge 1118511056 1118511056-AddedOffRampEdge 1122897133 1120029190"/>
    </vehicle>
    <vehicle id="bus276" type="bus_bus" depart="106.50">