<?xml version="1.0" encoding="UTF-8"?>

<!-- generated on 2024-12-04 17:53:30.745376 by main.py UNKNOWN
<configuration>
    <net-file value="/root/myvenv/nextpj/src/backend/data/scenario_1733334805/osm.net.xml.gz"/>
    <output-trip-file value="/root/myvenv/nextpj/src/backend/data/scenario_1733334805/osm.bus.trips.xml"/>
    <route-file value="/root/myvenv/nextpj/src/backend/data/scenario_1733334805/osm.bus.rou.xml"/>
    <prefix value="bus"/>
    <vehicle-class value="bus"/>
    <fringe-factor value="17.0"/>
    <validate value="True"/>
    <insertion-density value="90.0"/>
</configuration>
-->

<!-- generated on 2024-12-04 17:53:30 by Eclipse SUMO duarouter Version 1.21.0
<duarouterConfiguration xmlns:xsi="http://www.w3.org/2001/XMLSchema-instance" xsi:noNamespaceSchemaLocation="http://sumo.dlr.de/xsd/duarouterConfiguration.xsd">

    <input>
        <net-file value="/root/myvenv/nextpj/src/backend/data/scenario_1733334805/osm.net.xml.gz"/>
        <route-files value="/root/myvenv/nextpj/src/backend/data/scenario_1733334805/osm.bus.trips.xml"/>
    </input>

    <output>
        <output-file value="/root/myvenv/nextpj/src/backend/data/scenario_1733334805/osm.bus.trips.xml.tmp"/>
        <alternatives-output value="NUL"/>
        <write-trips value="true"/>
    </output>

    <time>
        <begin value="0.0"/>
        <end value="3600.0"/>
    </time>

    <report>
        <no-warnings value="true"/>
        <ignore-errors value="true"/>
        <no-step-log value="true"/>
    </report>

</duarouterConfiguration>
-->

<routes xmlns:xsi="http://www.w3.org/2001/XMLSchema-instance" xsi:noNamespaceSchemaLocation="http://sumo.dlr.de/xsd/routes_file.xsd">
    <vType id="bus_bus" vClass="bus"/>
    <trip id="bus4" type="bus_bus" depart="1.54" from="42064236" to="1120029182"/>
    <trip id="bus8" type="bus_bus" depart="3.09" from="277654571" to="43947365"/>
    <trip id="bus9" type="bus_bus" depart="3.47" from="43948501" to="1118511056"/>
    <trip id="bus12" type="bus_bus" depart="4.63" from="70707218" to="170605263"/>
    <trip id="bus14" type="bus_bus" depart="5.40" from="70707218" to="43947365"/>
    <trip id="bus18" type="bus_bus" depart="6.95" from="70707218" to="43947365"/>
    <trip id="bus24" type="bus_bus" depart="9.26" from="43947386#1" to="170605263"/>
    <trip id="bus29" type="bus_bus" depart="11.19" from="206489379-AddedOnRampEdge" to="170605263"/>
    <trip id="bus30" type="bus_bus" depart="11.58" from="70707218" to="43947365"/>
    <trip id="bus31" type="bus_bus" depart="11.96" from="42064236" to="43947365"/>
    <trip id="bus36" type="bus_bus" depart="13.89" from="70707218" to="170605263"/>
    <trip id="bus37" type="bus_bus" depart="14.28" from="43948501" to="170605263"/>
    <trip id="bus40" type="bus_bus" depart="15.43" from="42064236" to="170601197"/>
    <trip id="bus42" type="bus_bus" depart="16.21" from="42064105" to="170601197"/>
    <trip id="bus46" type="bus_bus" depart="17.75" from="43948501" to="170605263"/>
    <trip id="bus52" type="bus_bus" depart="20.07" from="277654571" to="43947365"/>
    <trip id="bus53" type="bus_bus" depart="20.45" from="1122897134" to="170605263"/>
    <trip id="bus55" type="bus_bus" depart="21.22" from="70707218" to="170601197"/>
    <trip id="bus56" type="bus_bus" depart="21.61" from="42064236" to="170601197"/>
    <trip id="bus58" type="bus_bus" depart="22.38" from="277654571" to="43947365"/>
    <trip id="bus59" type="bus_bus" depart="22.77" from="43947369#1" to="170601197"/>
    <trip id="bus62" type="bus_bus" depart="23.92" from="1118511056" to="170605263"/>
    <trip id="bus65" type="bus_bus" depart="25.08" from="277654571" to="1120029189"/>
    <trip id="bus67" type="bus_bus" depart="25.85" from="1120029191" to="206489379-AddedOnRampEdge"/>
    <trip id="bus68" type="bus_bus" depart="26.24" from="1120029190" to="43947368"/>
    <trip id="bus71" type="bus_bus" depart="27.40" from="277654571" to="43947368"/>
    <trip id="bus72" type="bus_bus" depart="27.78" from="42064236" to="170601197"/>
    <trip id="bus73" type="bus_bus" depart="28.17" from="42064236" to="43947365"/>
    <trip id="bus75" type="bus_bus" depart="28.94" from="70707218-AddedOffRampEdge" to="43947365"/>
    <trip id="bus76" type="bus_bus" depart="29.33" from="42064236" to="206489382-AddedOffRampEdge"/>
    <trip id="bus78" type="bus_bus" depart="30.10" from="277654571" to="43947365"/>
    <trip id="bus81" type="bus_bus" depart="31.26" from="277654571" to="43947368"/>
    <trip id="bus83" type="bus_bus" depart="32.03" from="277654571" to="43947365"/>
    <trip id="bus84" type="bus_bus" depart="32.41" from="277654571" to="170601193"/>
    <trip id="bus85" type="bus_bus" depart="32.80" from="70707218" to="42064105-AddedOffRampEdge"/>
    <trip id="bus86" type="bus_bus" depart="33.18" from="42064236" to="43947368"/>
    <trip id="bus87" type="bus_bus" depart="33.57" from="43948501" to="170601197"/>
    <trip id="bus89" type="bus_bus" depart="34.34" from="42064236" to="170605269"/>
    <trip id="bus92" type="bus_bus" depart="35.50" from="42064105-AddedOffRampEdge" to="170605263"/>
    <trip id="bus93" type="bus_bus" depart="35.89" from="70707218" to="170601197"/>
    <trip id="bus95" type="bus_bus" depart="36.66" from="42064236" to="170601197"/>
    <trip id="bus96" type="bus_bus" depart="37.04" from="277654571" to="43947368-AddedOnRampEdge"/>
    <trip id="bus97" type="bus_bus" depart="37.43" from="42064236" to="43947368"/>
    <trip id="bus98" type="bus_bus" depart="37.81" from="42064236" to="1120029186"/>
    <trip id="bus100" type="bus_bus" depart="38.59" from="70707218" to="43947369#1"/>
    <trip id="bus101" type="bus_bus" depart="38.97" from="70707218" to="170601197"/>
    <trip id="bus102" type="bus_bus" depart="39.36" from="42064236" to="170601197"/>
    <trip id="bus105" type="bus_bus" depart="40.52" from="277654571" to="43947368"/>
    <trip id="bus107" type="bus_bus" depart="41.29" from="70707218" to="70707218-AddedOffRampEdge"/>
    <trip id="bus108" type="bus_bus" depart="41.67" from="42064236" to="43947365"/>
    <trip id="bus109" type="bus_bus" depart="42.06" from="206489379" to="170605263"/>
    <trip id="bus111" type="bus_bus" depart="42.83" from="42064236" to="43947365-AddedOnRampEdge"/>
    <trip id="bus113" type="bus_bus" depart="43.60" from="42064236" to="43947368"/>
    <trip id="bus117" type="bus_bus" depart="45.15" from="277654571" to="1139168722"/>
    <trip id="bus118" type="bus_bus" depart="45.53" from="70707218" to="170601197"/>
    <trip id="bus120" type="bus_bus" depart="46.30" from="42064236" to="43947365"/>
    <trip id="bus121" type="bus_bus" depart="46.69" from="42064236" to="43947369#1-AddedOnRampEdge"/>
    <trip id="bus123" type="bus_bus" depart="47.46" from="277654571" to="170605263"/>
    <trip id="bus124" type="bus_bus" depart="47.85" from="43948501" to="170605263"/>
    <trip id="bus125" type="bus_bus" depart="48.23" from="277654571" to="43947365-AddedOnRampEdge"/>
    <trip id="bus127" type="bus_bus" depart="49.01" from="70707218-AddedOffRampEdge" to="70707218-AddedOffRampEdge"/>
    <trip id="bus132" type="bus_bus" depart="50.93" from="70707218" to="43947365"/>
    <trip id="bus134" type="bus_bus" depart="51.71" from="43948501" to="1118511056"/>
    <trip id="bus135" type="bus_bus" depart="52.09" from="43948501-AddedOffRampEdge" to="170605263"/>
    <trip id="bus136" type="bus_bus" depart="52.48" from="43948501" to="43947369#1-AddedOnRampEdge"/>
    <trip id="bus139" type="bus_bus" depart="53.64" from="277654571" to="43947365"/>
    <trip id="bus140" type="bus_bus" depart="54.02" from="43948501" to="170601197"/>
    <trip id="bus142" type="bus_bus" depart="54.79" from="42064236" to="43947368"/>
    <trip id="bus144" type="bus_bus" depart="55.56" from="42064236" to="170601197"/>
    <trip id="bus145" type="bus_bus" depart="55.95" from="1118511056" to="43947368"/>
    <trip id="bus149" type="bus_bus" depart="57.49" from="1120029190" to="43947368"/>
    <trip id="bus151" type="bus_bus" depart="58.27" from="70707218" to="43947365"/>
    <trip id="bus153" type="bus_bus" depart="59.04" from="277654571" to="43947368"/>
    <trip id="bus154" type="bus_bus" depart="59.42" from="43948501" to="43947368"/>
    <trip id="bus155" type="bus_bus" depart="59.81" from="70707218" to="170601197"/>
    <trip id="bus157" type="bus_bus" depart="60.58" from="43948501" to="43947368"/>
    <trip id="bus161" type="bus_bus" depart="62.12" from="43948501-AddedOffRampEdge" to="43947368"/>
    <trip id="bus162" type="bus_bus" depart="62.51" from="1120029181" to="43947365"/>
    <trip id="bus164" type="bus_bus" depart="63.28" from="43948501" to="43947368"/>
    <trip id="bus165" type="bus_bus" depart="63.67" from="43948501-AddedOffRampEdge" to="170601197"/>
    <trip id="bus168" type="bus_bus" depart="64.83" from="277654571" to="43947368"/>
    <trip id="bus170" type="bus_bus" depart="65.60" from="43948501" to="170601197"/>
    <trip id="bus172" type="bus_bus" depart="66.37" from="277654571" to="43947368"/>
    <trip id="bus173" type="bus_bus" depart="66.76" from="70707218" to="170601197"/>
    <trip id="bus175" type="bus_bus" depart="67.53" from="70707218" to="406802122"/>
    <trip id="bus177" type="bus_bus" depart="68.30" from="70707218" to="170601197"/>
    <trip id="bus178" type="bus_bus" depart="68.68" from="70707218" to="170601197"/>
    <trip id="bus179" type="bus_bus" depart="69.07" from="1122897134" to="170605263"/>
    <trip id="bus180" type="bus_bus" depart="69.46" from="43948501" to="170605263"/>
    <trip id="bus183" type="bus_bus" depart="70.61" from="277654571" to="43947365"/>
    <trip id="bus185" type="bus_bus" depart="71.39" from="42064236" to="43947365"/>
    <trip id="bus187" type="bus_bus" depart="72.16" from="277654571" to="1120029190"/>
    <trip id="bus188" type="bus_bus" depart="72.54" from="43948501" to="170605263"/>
    <trip id="bus189" type="bus_bus" depart="72.93" from="277654571" to="43947368"/>
    <trip id="bus190" type="bus_bus" depart="73.31" from="43948501" to="170605263"/>
    <trip id="bus191" type="bus_bus" depart="73.70" from="277654571" to="170605263"/>
    <trip id="bus192" type="bus_bus" depart="74.09" from="42064105-AddedOffRampEdge" to="170605263"/>
    <trip id="bus194" type="bus_bus" depart="74.86" from="70707218" to="43947365"/>
    <trip id="bus195" type="bus_bus" depart="75.24" from="70707218" to="43947365"/>
    <trip id="bus196" type="bus_bus" depart="75.63" from="277654571" to="41844004"/>
    <trip id="bus198" type="bus_bus" depart="76.40" from="42064236" to="42064232"/>
    <trip id="bus200" type="bus_bus" depart="77.17" from="42064236" to="170601197"/>
    <trip id="bus201" type="bus_bus" depart="77.56" from="42064236" to="43947368"/>
    <trip id="bus202" type="bus_bus" depart="77.95" from="43948501" to="170601197"/>
    <trip id="bus204" type="bus_bus" depart="78.72" from="43947386#1" to="170605263"/>
    <trip id="bus206" type="bus_bus" depart="79.49" from="43948501" to="170601197"/>
    <trip id="bus210" type="bus_bus" depart="81.03" from="42064232" to="43947365"/>
    <trip id="bus211" type="bus_bus" depart="81.42" from="206489382-AddedOffRampEdge" to="43947365"/>
    <trip id="bus212" type="bus_bus" depart="81.80" from="42064236" to="170601197"/>
    <trip id="bus213" type="bus_bus" depart="82.19" from="43948501" to="1118511056"/>
    <trip id="bus214" type="bus_bus" depart="82.58" from="43948501" to="43947368"/>
    <trip id="bus215" type="bus_bus" depart="82.96" from="1122897134" to="170605263"/>
    <trip id="bus217" type="bus_bus" depart="83.73" from="42064236" to="1120029186"/>
    <trip id="bus218" type="bus_bus" depart="84.12" from="277654571" to="43947368"/>
    <trip id="bus219" type="bus_bus" depart="84.50" from="42064236" to="43947368"/>
    <trip id="bus220" type="bus_bus" depart="84.89" from="43948501" to="660731151"/>
    <trip id="bus222" type="bus_bus" depart="85.66" from="70707218" to="43947365"/>
    <trip id="bus225" type="bus_bus" depart="86.82" from="70707218" to="43947365-AddedOnRampEdge"/>
    <trip id="bus226" type="bus_bus" depart="87.21" from="42064236" to="170601197"/>
    <trip id="bus227" type="bus_bus" depart="87.59" from="277654571" to="43947365"/>
    <trip id="bus231" type="bus_bus" depart="89.14" from="277654571" to="170605263"/>
    <trip id="bus232" type="bus_bus" depart="89.52" from="42064236" to="170601197"/>
    <trip id="bus233" type="bus_bus" depart="89.91" from="277654571" to="43947365"/>
    <trip id="bus234" type="bus_bus" depart="90.29" from="43948501" to="1120029189"/>
    <trip id="bus235" type="bus_bus" depart="90.68" from="42064105-AddedOffRampEdge" to="406802122"/>
    <trip id="bus237" type="bus_bus" depart="91.45" from="42064236" to="43947368"/>
    <trip id="bus238" type="bus_bus" depart="91.84" from="43947365-AddedOnRampEdge" to="43947365"/>
    <trip id="bus241" type="bus_bus" depart="92.99" from="277654571" to="43947368"/>
    <trip id="bus242" type="bus_bus" depart="93.38" from="70707218" to="43947386#1"/>
    <trip id="bus243" type="bus_bus" depart="93.77" from="42064232" to="43947365-AddedOnRampEdge"/>
    <trip id="bus244" type="bus_bus" depart="94.15" from="42064236" to="43947365"/>
    <trip id="bus246" type="bus_bus" depart="94.92" from="42064236" to="1120029182"/>
    <trip id="bus247" type="bus_bus" depart="95.31" from="277654571" to="43947365"/>
    <trip id="bus248" type="bus_bus" depart="95.70" from="42064105-AddedOffRampEdge" to="170601197"/>
    <trip id="bus251" type="bus_bus" depart="96.85" from="42064105" to="42064105-AddedOffRampEdge"/>
    <trip id="bus252" type="bus_bus" depart="97.24" from="1120029181" to="43947365"/>
    <trip id="bus253" type="bus_bus" depart="97.62" from="170605264" to="170605264"/>
    <trip id="bus255" type="bus_bus" depart="98.40" from="277654571" to="170605263"/>
    <trip id="bus256" type="bus_bus" depart="98.78" from="43948501" to="170605263"/>
    <trip id="bus257" type="bus_bus" depart="99.17" from="43948501" to="43947368"/>
    <trip id="bus258" type="bus_bus" depart="99.55" from="277654571" to="1120029191"/>
    <trip id="bus260" type="bus_bus" depart="100.33" from="70707218-AddedOffRampEdge" to="170605263"/>
    <trip id="bus261" type="bus_bus" depart="100.71" from="43948501" to="43947368"/>
    <trip id="bus262" type="bus_bus" depart="101.10" from="43948501" to="43947368"/>
    <trip id="bus263" type="bus_bus" depart="101.48" from="70707218" to="170601197"/>
    <trip id="bus265" type="bus_bus" depart="102.25" from="170601193" to="43947365"/>
    <trip id="bus266" type="bus_bus" depart="102.64" from="42064236" to="170601197"/>
    <trip id="bus267" type="bus_bus" depart="103.03" from="43948501" to="43947368"/>
    <trip id="bus269" type="bus_bus" depart="103.80" from="43948501" to="1139168722"/>
    <trip id="bus272" type="bus_bus" depart="104.96" from="277654571" to="43947365"/>
    <trip id="bus273" type="bus_bus" depart="105.34" from="70707218" to="170605263"/>
    <trip id="bus274" type="bus_bus" depart="105.73" from="43948501" to="1120029190"/>
    <trip id="bus276" type="bus_bus" depart="106.50" from="1122897133" to="43947368"/>
    <trip id="bus277" type="bus_bus" depart="106.89" from="70707218" to="43947365"/>
    <trip id="bus279" type="bus_bus" depart="107.66" from="43948501" to="170605263"/>
    <trip id="bus285" type="bus_bus" depart="109.97" from="43948501" to="170605263"/>
    <trip id="bus287" type="bus_bus" depart="110.74" from="277654571" to="43947368"/>
    <trip id="bus289" type="bus_bus" depart="111.52" from="42064236" to="43947365"/>
    <trip id="bus290" type="bus_bus" depart="111.90" from="277654571" to="43947368"/>
    <trip id="bus292" type="bus_bus" depart="112.67" from="70707218" to="170601197"/>
    <trip id="bus293" type="bus_bus" depart="113.06" from="42064236" to="43947365"/>
    <trip id="bus295" type="bus_bus" depart="113.83" from="70707218" to="170601197"/>
    <trip id="bus296" type="bus_bus" depart="114.22" from="277654571" to="43947368"/>
    <trip id="bus297" type="bus_bus" depart="114.60" from="277654571" to="43947368"/>
    <trip id="bus298" type="bus_bus" depart="114.99" from="43948501" to="170601197"/>
    <trip id="bus301" type="bus_bus" depart="116.15" from="42064236" to="43947368"/>
    <trip id="bus303" type="bus_bus" depart="116.92" from="42064236" to="43947368"/>
    <trip id="bus305" type="bus_bus" depart="117.69" from="43948501" to="170605263"/>
    <trip id="bus308" type="bus_bus" depart="118.85" from="43948501" to="170605263"/>
    <trip id="bus309" type="bus_bus" depart="119.23" from="43948501" to="170601197"/>
    <trip id="bus310" type="bus_bus" depart="119.62" from="277654571" to="1139168722"/>
    <trip id="bus312" type="bus_bus" depart="120.39" from="42064236" to="43947368"/>
    <trip id="bus314" type="bus_bus" depart="121.16" from="42064236" to="43947365"/>
    <trip id="bus319" type="bus_bus" depart="123.09" from="42064236" to="170601197"/>
    <trip id="bus320" type="bus_bus" depart="123.48" from="70707218" to="42064105"/>
    <trip id="bus322" type="bus_bus" depart="124.25" from="70707218" to="206489379-AddedOnRampEdge"/>
    <trip id="bus325" type="bus_bus" depart="125.41" from="206489382" to="1120029186"/>
    <trip id="bus326" type="bus_bus" depart="125.79" from="70707218" to="206489379"/>
    <trip id="bus333" type="bus_bus" depart="128.49" from="43948501" to="170601197"/>
    <trip id="bus335" type="bus_bus" depart="129.27" from="42064236" to="43947368"/>
    <trip id="bus336" type="bus_bus" depart="129.65" from="70707218" to="170605263"/>
    <trip id="bus340" type="bus_bus" depart="131.19" from="43948501" to="170601197"/>
    <trip id="bus342" type="bus_bus" depart="131.97" from="1118511056" to="170605263"/>
    <trip id="bus344" type="bus_bus" depart="132.74" from="277654571" to="43947365"/>
    <trip id="bus345" type="bus_bus" depart="133.12" from="43948501" to="170605263"/>
    <trip id="bus346" type="bus_bus" depart="133.51" from="43948501" to="43947369#1"/>
    <trip id="bus348" type="bus_bus" depart="134.28" from="43948501" to="43947369#1-AddedOnRampEdge"/>
    <trip id="bus350" type="bus_bus" depart="135.05" from="43948501" to="43947368"/>
    <trip id="bus352" type="bus_bus" depart="135.83" from="206489379-AddedOnRampEdge" to="170605263"/>
    <trip id="bus354" type="bus_bus" depart="136.60" from="277654571" to="170601193"/>
    <trip id="bus362" type="bus_bus" depart="139.68" from="70707218" to="70707218-AddedOffRampEdge"/>
    <trip id="bus363" type="bus_bus" depart="140.07" from="43948501" to="170601197"/>
    <trip id="bus365" type="bus_bus" depart="140.84" from="42064236" to="43947365"/>
    <trip id="bus366" type="bus_bus" depart="141.23" from="70707218" to="170601197"/>
    <trip id="bus367" type="bus_bus" depart="141.61" from="43947365-AddedOnRampEdge" to="43947365"/>
    <trip id="bus369" type="bus_bus" depart="142.39" from="277654571" to="170605263"/>
    <trip id="bus370" type="bus_bus" depart="142.77" from="43948501" to="43947368"/>
    <trip id="bus371" type="bus_bus" depart="143.16" from="277654571" to="43947365"/>
    <trip id="bus377" type="bus_bus" depart="145.47" from="70707218" to="43947365"/>
    <trip id="bus381" type="bus_bus" depart="147.02" from="43948501" to="170601197"/>
    <trip id="bus382" type="bus_bus" depart="147.40" from="42064236" to="43947369#1"/>
    <trip id="bus383" type="bus_bus" depart="147.79" from="42064236" to="43947365"/>
    <trip id="bus385" type="bus_bus" depart="148.56" from="43947369#1" to="170601197"/>
    <trip id="bus392" type="bus_bus" depart="151.26" from="277654571" to="43947368"/>
    <trip id="bus393" type="bus_bus" depart="151.65" from="70707218" to="170601197"/>
    <trip id="bus397" type="bus_bus" depart="153.19" from="277654571" to="43947368"/>
    <trip id="bus399" type="bus_bus" depart="153.96" from="42064236" to="43947368"/>
    <trip id="bus400" type="bus_bus" depart="154.35" from="277654571" to="170605263"/>
    <trip id="bus402" type="bus_bus" depart="155.12" from="42064236" to="170601197"/>
    <trip id="bus406" type="bus_bus" depart="156.66" from="206489382" to="43947365"/>
    <trip id="bus407" type="bus_bus" depart="157.05" from="42064236" to="170601197"/>
    <trip id="bus410" type="bus_bus" depart="158.21" from="43948501-AddedOffRampEdge" to="170605263"/>
    <trip id="bus411" type="bus_bus" depart="158.59" from="43948501" to="43947368"/>
    <trip id="bus415" type="bus_bus" depart="160.13" from="70707218" to="170605263"/>
    <trip id="bus417" type="bus_bus" depart="160.91" from="43948501" to="170605263"/>
    <trip id="bus418" type="bus_bus" depart="161.29" from="43948501" to="170601197"/>
    <trip id="bus419" type="bus_bus" depart="161.68" from="42064236" to="43947390#1"/>
    <trip id="bus420" type="bus_bus" depart="162.06" from="277654571" to="43947365"/>
    <trip id="bus421" type="bus_bus" depart="162.45" from="43948501" to="43947368"/>
    <trip id="bus424" type="bus_bus" depart="163.61" from="43948501" to="43947368"/>
    <trip id="bus427" type="bus_bus" depart="164.77" from="70707218" to="70707218-AddedOffRampEdge"/>
    <trip id="bus428" type="bus_bus" depart="165.15" from="43948501" to="170605263"/>
    <trip id="bus430" type="bus_bus" depart="165.92" from="70707218" to="170605263"/>
    <trip id="bus431" type="bus_bus" depart="166.31" from="43948501" to="43947368"/>
    <trip id="bus433" type="bus_bus" depart="167.08" from="277654571" to="170605263"/>
    <trip id="bus434" type="bus_bus" depart="167.47" from="170605269" to="277653336"/>
    <trip id="bus435" type="bus_bus" depart="167.85" from="42064236" to="43947368"/>
    <trip id="bus437" type="bus_bus" depart="168.62" from="70707218" to="43947365"/>
    <trip id="bus438" type="bus_bus" depart="169.01" from="277654571" to="43947368"/>
    <trip id="bus441" type="bus_bus" depart="170.17" from="1118511056" to="43947368"/>
    <trip id="bus442" type="bus_bus" depart="170.55" from="70707218" to="43947365"/>
    <trip id="bus443" type="bus_bus" depart="170.94" from="206489379" to="170605263"/>
    <trip id="bus444" type="bus_bus" depart="171.33" from="277654571" to="43947365"/>
    <trip id="bus446" type="bus_bus" depart="172.10" from="277654571" to="43947368"/>
    <trip id="bus448" type="bus_bus" depart="172.87" from="42064236" to="170601197"/>
    <trip id="bus449" type="bus_bus" depart="173.25" from="42064236" to="42064232"/>
    <trip id="bus450" type="bus_bus" depart="173.64" from="70707218-AddedOffRampEdge" to="170601197"/>
    <trip id="bus451" type="bus_bus" depart="174.03" from="70707218" to="43947365"/>
    <trip id="bus454" type="bus_bus" depart="175.18" from="1120029186" to="43947365"/>
    <trip id="bus455" type="bus_bus" depart="175.57" from="42064236" to="43947368"/>
    <trip id="bus456" type="bus_bus" depart="175.96" from="277654571" to="43947368"/>
    <trip id="bus460" type="bus_bus" depart="177.50" from="43948501" to="43947368"/>
    <trip id="bus461" type="bus_bus" depart="177.88" from="43947382" to="43947368"/>
    <trip id="bus463" type="bus_bus" depart="178.66" from="42064236" to="42064232"/>
    <trip id="bus464" type="bus_bus" depart="179.04" from="43948501" to="1120029196"/>
    <trip id="bus465" type="bus_bus" depart="179.43" from="277654571" to="43947365-AddedOnRampEdge"/>
    <trip id="bus468" type="bus_bus" depart="180.59" from="42064236" to="43947368"/>
    <trip id="bus469" type="bus_bus" depart="180.97" from="70707218" to="170601197"/>
    <trip id="bus472" type="bus_bus" depart="182.13" from="277654571" to="1139168722"/>
    <trip id="bus473" type="bus_bus" depart="182.52" from="70707218" to="170601197"/>
    <trip id="bus475" type="bus_bus" depart="183.29" from="43948501" to="43948501-AddedOffRampEdge"/>
    <trip id="bus477" type="bus_bus" depart="184.06" from="277654571" to="43947368"/>
    <trip id="bus479" type="bus_bus" depart="184.83" from="42064236" to="43947365"/>
    <trip id="bus481" type="bus_bus" depart="185.60" from="660731151" to="43947369#1-AddedOnRampEdge"/>
    <trip id="bus484" type="bus_bus" depart="186.76" from="42064236" to="43947368-AddedOnRampEdge"/>
    <trip id="bus485" type="bus_bus" depart="187.15" from="277654571" to="1120029189"/>
    <trip id="bus487" type="bus_bus" depart="187.92" from="277654571" to="170605263"/>
    <trip id="bus488" type="bus_bus" depart="188.30" from="170605264" to="43947382"/>
    <trip id="bus489" type="bus_bus" depart="188.69" from="277654571" to="206489379-AddedOnRampEdge"/>
    <trip id="bus490" type="bus_bus" depart="189.07" from="1122897133" to="43947368"/>
    <trip id="bus493" type="bus_bus" depart="190.23" from="70707218" to="170605263"/>
    <trip id="bus494" type="bus_bus" depart="190.62" from="43948501" to="170601197"/>
    <trip id="bus498" type="bus_bus" depart="192.16" from="277654571" to="170605263"/>
    <trip id="bus502" type="bus_bus" depart="193.71" from="277654571" to="170605263"/>
    <trip id="bus504" type="bus_bus" depart="194.48" from="70707218" to="170605263"/>
    <trip id="bus507" type="bus_bus" depart="195.63" from="43948501" to="170601197"/>
    <trip id="bus509" type="bus_bus" depart="196.41" from="1120029190" to="43947368"/>
    <trip id="bus511" type="bus_bus" depart="197.18" from="70707218" to="170605263"/>
    <trip id="bus512" type="bus_bus" depart="197.56" from="170605269" to="43947368"/>
    <trip id="bus513" type="bus_bus" depart="197.95" from="1118511056" to="43947368"/>
    <trip id="bus517" type="bus_bus" depart="199.49" from="1118511056-AddedOffRampEdge" to="43947368"/>
    <trip id="bus518" type="bus_bus" depart="199.88" from="277654571" to="170605263"/>
    <trip id="bus521" type="bus_bus" depart="201.04" from="43948501" to="206489379"/>
    <trip id="bus524" type="bus_bus" depart="202.19" from="70707218" to="1120029183"/>
    <trip id="bus525" type="bus_bus" depart="202.58" from="43948501" to="43947368"/>
    <trip id="bus526" type="bus_bus" depart="202.97" from="42064236" to="170605264"/>
    <trip id="bus529" type="bus_bus" depart="204.12" from="43948501" to="206489379-AddedOnRampEdge"/>
    <trip id="bus537" type="bus_bus" depart="207.21" from="43948501" to="43947368"/>
    <trip id="bus538" type="bus_bus" depart="207.60" from="43948501" to="43947368"/>
    <trip id="bus539" type="bus_bus" depart="207.98" from="43948501" to="170601197"/>
    <trip id="bus540" type="bus_bus" depart="208.37" from="42064236" to="170601197"/>
    <trip id="bus541" type="bus_bus" depart="208.75" from="277654571" to="170605263"/>
    <trip id="bus543" type="bus_bus" depart="209.53" from="42064236" to="43947365"/>
    <trip id="bus544" type="bus_bus" depart="209.91" from="406802122" to="170601197"/>
    <trip id="bus550" type="bus_bus" depart="212.23" from="277654571" to="1139168722"/>
    <trip id="bus551" type="bus_bus" depart="212.61" from="277654571" to="43947365"/>
    <trip id="bus552" type="bus_bus" depart="213.00" from="43948501" to="43947368"/>
    <trip id="bus555" type="bus_bus" depart="214.16" from="42064236" to="170601197"/>
    <trip id="bus556" type="bus_bus" depart="214.54" from="43948501" to="170601197"/>
    <trip id="bus557" type="bus_bus" depart="214.93" from="1122897134" to="43947368"/>
    <trip id="bus558" type="bus_bus" depart="215.31" from="277654571" to="43947368"/>
    <trip id="bus559" type="bus_bus" depart="215.70" from="42064236" to="43947368"/>
    <trip id="bus565" type="bus_bus" depart="218.02" from="43948501" to="170605263"/>
    <trip id="bus567" type="bus_bus" depart="218.79" from="70707218" to="42064105-AddedOffRampEdge"/>
    <trip id="bus568" type="bus_bus" depart="219.17" from="42064105-AddedOffRampEdge" to="170601197"/>
    <trip id="bus570" type="bus_bus" depart="219.94" from="43948501" to="170601197"/>
    <trip id="bus572" type="bus_bus" depart="220.72" from="277654571" to="43947365"/>
    <trip id="bus576" type="bus_bus" depart="222.26" from="43948501" to="170601197"/>
    <trip id="bus577" type="bus_bus" depart="222.65" from="43948501" to="206489379"/>
    <trip id="bus578" type="bus_bus" depart="223.03" from="42064236" to="170601197"/>
    <trip id="bus580" type="bus_bus" depart="223.80" from="42064236" to="170601197"/>
    <trip id="bus581" type="bus_bus" depart="224.19" from="43948501" to="206489379-AddedOnRampEdge"/>
    <trip id="bus584" type="bus_bus" depart="225.35" from="1118511056" to="170605263"/>
    <trip id="bus586" type="bus_bus" depart="226.12" from="277654571" to="170605263"/>
    <trip id="bus591" type="bus_bus" depart="228.05" from="1120029190" to="43947368"/>
    <trip id="bus594" type="bus_bus" depart="229.21" from="42064236" to="42064232"/>
    <trip id="bus595" type="bus_bus" depart="229.59" from="43948501" to="170605263"/>
    <trip id="bus597" type="bus_bus" depart="230.36" from="277654571" to="43947368"/>
    <trip id="bus600" type="bus_bus" depart="231.52" from="70707218" to="170601197"/>
    <trip id="bus602" type="bus_bus" depart="232.29" from="42064105" to="170605263"/>
    <trip id="bus603" type="bus_bus" depart="232.68" from="277654571" to="170605263"/>
    <trip id="bus606" type="bus_bus" depart="233.84" from="70707218" to="170605263"/>
    <trip id="bus607" type="bus_bus" depart="234.22" from="43948501" to="43947368"/>
    <trip id="bus608" type="bus_bus" depart="234.61" from="43948501-AddedOffRampEdge" to="170601197"/>
    <trip id="bus609" type="bus_bus" depart="234.99" from="170605269" to="170601197"/>
    <trip id="bus611" type="bus_bus" depart="235.76" from="43948501" to="170601197"/>
    <trip id="bus612" type="bus_bus" depart="236.15" from="43948501" to="206489379-AddedOnRampEdge"/>
    <trip id="bus613" type="bus_bus" depart="236.54" from="43948501" to="43947368"/>
    <trip id="bus614" type="bus_bus" depart="236.92" from="42064236" to="43947369#1"/>
    <trip id="bus615" type="bus_bus" depart="237.31" from="42064236" to="43947365"/>
    <trip id="bus616" type="bus_bus" depart="237.69" from="43947382" to="43947368"/>
    <trip id="bus621" type="bus_bus" depart="239.62" from="277654571" to="170605263"/>