<?xml version="1.0" encoding="UTF-8"?>

<!-- generated on 2024-12-04 16:57:34.721849 by main.py UNKNOWN
<configuration>
    <net-file value="/root/myvenv/nextpj/src/backend/data/scenario_1733331450/osm.net.xml.gz"/>
    <output-trip-file value="/root/myvenv/nextpj/src/backend/data/scenario_1733331450/osm.passenger.trips.xml"/>
    <route-file value="/root/myvenv/nextpj/src/backend/data/scenario_1733331450/osm.passenger.rou.xml"/>
    <prefix value="passenger"/>
    <vehicle-class value="passenger"/>
    <fringe-factor value="30.0"/>
    <validate value="True"/>
    <insertion-density value="100.0"/>
</configuration>
-->

<!-- generated on 2024-12-04 16:57:34 by Eclipse SUMO duarouter Version 1.21.0
<duarouterConfiguration xmlns:xsi="http://www.w3.org/2001/XMLSchema-instance" xsi:noNamespaceSchemaLocation="http://sumo.dlr.de/xsd/duarouterConfiguration.xsd">

    <input>
        <net-file value="/root/myvenv/nextpj/src/backend/data/scenario_1733331450/osm.net.xml.gz"/>
        <route-files value="/root/myvenv/nextpj/src/backend/data/scenario_1733331450/osm.passenger.trips.xml"/>
    </input>

    <output>
        <output-file value="/root/myvenv/nextpj/src/backend/data/scenario_1733331450/osm.passenger.trips.xml.tmp"/>
        <alternatives-output value="NUL"/>
        <write-trips value="true"/>
    </output>

    <time>
        <begin value="0.0"/>
        <end value="3600.0"/>
    </time>

    <report>
        <no-warnings value="true"/>
        <ignore-errors value="true"/>
        <no-step-log value="true"/>
    </report>

</duarouterConfiguration>
-->

<routes xmlns:xsi="http://www.w3.org/2001/XMLSchema-instance" xsi:noNamespaceSchemaLocation="http://sumo.dlr.de/xsd/routes_file.xsd">
    <vType id="passenger_passenger" vClass="passenger"/>
    <trip id="passenger4" type="passenger_passenger" depart="1.39" from="42064236" to="1120029183"/>
    <trip id="passenger6" type="passenger_passenger" depart="2.08" from="1120029183" to="170601197"/>
    <trip id="passenger8" type="passenger_passenger" depart="2.78" from="277654571" to="43947365"/>
    <trip id="passenger10" type="passenger_passenger" depart="3.47" from="70707218" to="43947365"/>
    <trip id="passenger12" type="passenger_passenger" depart="4.17" from="70707218" to="170605263"/>
    <trip id="passenger13" type="passenger_passenger" depart="4.51" from="170605264" to="170601197"/>
    <trip id="passenger14" type="passenger_passenger" depart="4.86" from="70707218" to="43947365"/>
    <trip id="passenger15" type="passenger_passenger" depart="5.21" from="70707218" to="43947365"/>
    <trip id="passenger17" type="passenger_passenger" depart="5.90" from="42064236" to="42064232"/>
    <trip id="passenger18" type="passenger_passenger" depart="6.25" from="70707218" to="43947365"/>
    <trip id="passenger19" type="passenger_passenger" depart="6.60" from="70707218" to="43947365"/>
    <trip id="passenger20" type="passenger_passenger" depart="6.95" from="43948501" to="1120029190"/>
    <trip id="passenger21" type="passenger_passenger" depart="7.29" from="277654571" to="170605263"/>
    <trip id="passenger23" type="passenger_passenger" depart="7.99" from="170605269" to="170601197"/>
    <trip id="passenger24" type="passenger_passenger" depart="8.33" from="43948501" to="170605263"/>
    <trip id="passenger25" type="passenger_passenger" depart="8.68" from="42064236" to="170601197"/>
    <trip id="passenger26" type="passenger_passenger" depart="9.03" from="277654571" to="43947368"/>
    <trip id="passenger28" type="passenger_passenger" depart="9.72" from="277654571" to="43947365"/>
    <trip id="passenger29" type="passenger_passenger" depart="10.07" from="277654571" to="170605263"/>
    <trip id="passenger30" type="passenger_passenger" depart="10.42" from="70707218" to="43947365"/>
    <trip id="passenger31" type="passenger_passenger" depart="10.77" from="43947365-AddedOnRampEdge" to="43947365"/>
    <trip id="passenger35" type="passenger_passenger" depart="12.15" from="277654571" to="43947368-AddedOnRampEdge"/>
    <trip id="passenger36" type="passenger_passenger" depart="12.50" from="70707218" to="170605263"/>
    <trip id="passenger37" type="passenger_passenger" depart="12.85" from="43948501" to="170605263"/>
    <trip id="passenger38" type="passenger_passenger" depart="13.20" from="70707218" to="170605263"/>
    <trip id="passenger41" type="passenger_passenger" depart="14.24" from="43947382" to="43947368"/>
    <trip id="passenger42" type="passenger_passenger" depart="14.59" from="42064236" to="170601197"/>
    <trip id="passenger46" type="passenger_passenger" depart="15.97" from="43948501-AddedOffRampEdge" to="170605263"/>
    <trip id="passenger47" type="passenger_passenger" depart="16.32" from="1120029196" to="170605263"/>
    <trip id="passenger52" type="passenger_passenger" depart="18.06" from="277654571" to="43947365"/>
    <trip id="passenger53" type="passenger_passenger" depart="18.41" from="206489379-AddedOnRampEdge" to="170605263"/>
    <trip id="passenger54" type="passenger_passenger" depart="18.75" from="42064236" to="43947369#1"/>
    <trip id="passenger55" type="passenger_passenger" depart="19.10" from="70707218" to="170601197"/>
    <trip id="passenger56" type="passenger_passenger" depart="19.45" from="42064236" to="170601197"/>
    <trip id="passenger58" type="passenger_passenger" depart="20.14" from="277654571" to="43947365"/>
    <trip id="passenger59" type="passenger_passenger" depart="20.49" from="43948501" to="170601197"/>
    <trip id="passenger62" type="passenger_passenger" depart="21.53" from="1118511056" to="170605263"/>
    <trip id="passenger68" type="passenger_passenger" depart="23.62" from="1122897133" to="43947368"/>
    <trip id="passenger69" type="passenger_passenger" depart="23.96" from="43948501" to="170601197"/>
    <trip id="passenger70" type="passenger_passenger" depart="24.31" from="42064236" to="42064232"/>
    <trip id="passenger71" type="passenger_passenger" depart="24.66" from="277654571" to="43947368"/>
    <trip id="passenger72" type="passenger_passenger" depart="25.00" from="42064236" to="170601197"/>
    <trip id="passenger73" type="passenger_passenger" depart="25.35" from="42064236" to="43947365"/>
    <trip id="passenger74" type="passenger_passenger" depart="25.70" from="277654571" to="170605263"/>
    <trip id="passenger75" type="passenger_passenger" depart="26.05" from="70707218-AddedOffRampEdge" to="43947365"/>
    <trip id="passenger76" type="passenger_passenger" depart="26.39" from="42064236" to="277653336"/>
    <trip id="passenger81" type="passenger_passenger" depart="28.13" from="277654571" to="43947368"/>
    <trip id="passenger83" type="passenger_passenger" depart="28.82" from="277654571" to="43947365"/>
    <trip id="passenger85" type="passenger_passenger" depart="29.52" from="70707218" to="43947365"/>
    <trip id="passenger86" type="passenger_passenger" depart="29.87" from="42064236" to="43947368"/>
    <trip id="passenger87" type="passenger_passenger" depart="30.21" from="70707218" to="170601197"/>
    <trip id="passenger91" type="passenger_passenger" depart="31.60" from="70707218" to="170601197"/>
    <trip id="passenger93" type="passenger_passenger" depart="32.30" from="70707218" to="170601197"/>
    <trip id="passenger94" type="passenger_passenger" depart="32.64" from="277654571" to="170605263"/>
    <trip id="passenger95" type="passenger_passenger" depart="32.99" from="42064236" to="170601197"/>
    <trip id="passenger96" type="passenger_passenger" depart="33.34" from="277654571" to="43947368"/>
    <trip id="passenger97" type="passenger_passenger" depart="33.69" from="42064236" to="43947368"/>
    <trip id="passenger101" type="passenger_passenger" depart="35.08" from="70707218" to="170601197"/>
    <trip id="passenger102" type="passenger_passenger" depart="35.42" from="42064236" to="170601197"/>
    <trip id="passenger105" type="passenger_passenger" depart="36.46" from="277654571" to="43947368"/>
    <trip id="passenger107" type="passenger_passenger" depart="37.16" from="70707218" to="70707218-AddedOffRampEdge"/>
    <trip id="passenger108" type="passenger_passenger" depart="37.51" from="43947365-AddedOnRampEdge" to="43947365"/>
    <trip id="passenger109" type="passenger_passenger" depart="37.85" from="277654571" to="170605263"/>
    <trip id="passenger110" type="passenger_passenger" depart="38.20" from="70707218" to="43947365"/>
    <trip id="passenger111" type="passenger_passenger" depart="38.55" from="42064236" to="43947365-AddedOnRampEdge"/>
    <trip id="passenger113" type="passenger_passenger" depart="39.24" from="42064236" to="43947368"/>
    <trip id="passenger118" type="passenger_passenger" depart="40.98" from="70707218" to="170601197"/>
    <trip id="passenger120" type="passenger_passenger" depart="41.67" from="42064236" to="43947365"/>
    <trip id="passenger121" type="passenger_passenger" depart="42.02" from="42064236" to="43947368"/>
    <trip id="passenger122" type="passenger_passenger" depart="42.37" from="277654571" to="43947365"/>
    <trip id="passenger123" type="passenger_passenger" depart="42.72" from="277654571" to="170605263"/>
    <trip id="passenger124" type="passenger_passenger" depart="43.06" from="43948501" to="170605263"/>
    <trip id="passenger125" type="passenger_passenger" depart="43.41" from="277654571" to="43947368"/>
    <trip id="passenger126" type="passenger_passenger" depart="43.76" from="1122897134" to="170605263"/>
    <trip id="passenger127" type="passenger_passenger" depart="44.10" from="70707218-AddedOffRampEdge" to="70707218-AddedOffRampEdge"/>
    <trip id="passenger129" type="passenger_passenger" depart="44.80" from="277654571" to="43947368"/>
    <trip id="passenger131" type="passenger_passenger" depart="45.49" from="42064236" to="170601197"/>
    <trip id="passenger132" type="passenger_passenger" depart="45.84" from="70707218" to="43947365"/>
    <trip id="passenger133" type="passenger_passenger" depart="46.19" from="43948501" to="43948501-AddedOffRampEdge"/>
    <trip id="passenger134" type="passenger_passenger" depart="46.54" from="43948501" to="1118511056-AddedOffRampEdge"/>
    <trip id="passenger135" type="passenger_passenger" depart="46.88" from="70707218" to="170605263"/>
    <trip id="passenger136" type="passenger_passenger" depart="47.23" from="43948501" to="43947368"/>
    <trip id="passenger139" type="passenger_passenger" depart="48.27" from="277654571" to="43947365"/>
    <trip id="passenger140" type="passenger_passenger" depart="48.62" from="43948501" to="170601197"/>
    <trip id="passenger141" type="passenger_passenger" depart="48.97" from="43948501" to="170601197"/>
    <trip id="passenger142" type="passenger_passenger" depart="49.31" from="42064236" to="43947368"/>
    <trip id="passenger143" type="passenger_passenger" depart="49.66" from="70707218" to="170601197"/>
    <trip id="passenger144" type="passenger_passenger" depart="50.01" from="42064236" to="170601197"/>
    <trip id="passenger145" type="passenger_passenger" depart="50.36" from="1118511056" to="43947368"/>
    <trip id="passenger146" type="passenger_passenger" depart="50.70" from="43948501" to="170601197"/>
    <trip id="passenger149" type="passenger_passenger" depart="51.74" from="1122897134" to="43947368"/>
    <trip id="passenger150" type="passenger_passenger" depart="52.09" from="70707218" to="42064105-AddedOffRampEdge"/>
    <trip id="passenger151" type="passenger_passenger" depart="52.44" from="70707218" to="43947365"/>
    <trip id="passenger153" type="passenger_passenger" depart="53.13" from="277654571" to="43947368"/>
    <trip id="passenger154" type="passenger_passenger" depart="53.48" from="43948501-AddedOffRampEdge" to="43947368"/>
    <trip id="passenger155" type="passenger_passenger" depart="53.83" from="70707218" to="170601197"/>
    <trip id="passenger157" type="passenger_passenger" depart="54.52" from="43948501" to="43947368"/>
    <trip id="passenger158" type="passenger_passenger" depart="54.87" from="42064236" to="43947365"/>
    <trip id="passenger159" type="passenger_passenger" depart="55.22" from="277654571" to="43947368"/>
    <trip id="passenger165" type="passenger_passenger" depart="57.30" from="70707218" to="170601197"/>
    <trip id="passenger166" type="passenger_passenger" depart="57.65" from="43948501" to="170601197"/>
    <trip id="passenger168" type="passenger_passenger" depart="58.34" from="277654571" to="43947368"/>
    <trip id="passenger170" type="passenger_passenger" depart="59.04" from="43948501-AddedOffRampEdge" to="170601197"/>
    <trip id="passenger171" type="passenger_passenger" depart="59.38" from="1120029182" to="170601197"/>
    <trip id="passenger172" type="passenger_passenger" depart="59.73" from="277654571" to="43947368"/>
    <trip id="passenger173" type="passenger_passenger" depart="60.08" from="70707218" to="170601197"/>
    <trip id="passenger174" type="passenger_passenger" depart="60.43" from="43948501" to="170605263"/>
    <trip id="passenger175" type="passenger_passenger" depart="60.77" from="70707218" to="42064105"/>
    <trip id="passenger176" type="passenger_passenger" depart="61.12" from="70707218" to="170601197"/>
    <trip id="passenger177" type="passenger_passenger" depart="61.47" from="70707218" to="170601197"/>
    <trip id="passenger178" type="passenger_passenger" depart="61.82" from="70707218" to="170601197"/>
    <trip id="passenger179" type="passenger_passenger" depart="62.16" from="206489379-AddedOnRampEdge" to="170605263"/>
    <trip id="passenger180" type="passenger_passenger" depart="62.51" from="43948501" to="170605263"/>
    <trip id="passenger182" type="passenger_passenger" depart="63.21" from="42064236" to="43947365"/>
    <trip id="passenger183" type="passenger_passenger" depart="63.55" from="277654571" to="43947365"/>
    <trip id="passenger184" type="passenger_passenger" depart="63.90" from="1118511056" to="43947368"/>
    <trip id="passenger185" type="passenger_passenger" depart="64.25" from="42064236" to="43947365"/>
    <trip id="passenger188" type="passenger_passenger" depart="65.29" from="43948501" to="170605263"/>
    <trip id="passenger189" type="passenger_passenger" depart="65.64" from="277654571" to="43947368"/>
    <trip id="passenger190" type="passenger_passenger" depart="65.98" from="43948501" to="170605263"/>
    <trip id="passenger191" type="passenger_passenger" depart="66.33" from="277654571" to="170605263"/>
    <trip id="passenger194" type="passenger_passenger" depart="67.37" from="70707218" to="43947365"/>
    <trip id="passenger195" type="passenger_passenger" depart="67.72" from="70707218" to="43947365"/>
    <trip id="passenger197" type="passenger_passenger" depart="68.41" from="1118511056" to="170605263"/>
    <trip id="passenger198" type="passenger_passenger" depart="68.76" from="42064236" to="43947365"/>
    <trip id="passenger199" type="passenger_passenger" depart="69.11" from="43948501" to="170605263"/>
    <trip id="passenger200" type="passenger_passenger" depart="69.46" from="42064236" to="170601197"/>
    <trip id="passenger201" type="passenger_passenger" depart="69.80" from="42064236" to="43947368"/>
    <trip id="passenger202" type="passenger_passenger" depart="70.15" from="43948501-AddedOffRampEdge" to="170601197"/>
    <trip id="passenger204" type="passenger_passenger" depart="70.85" from="43948501" to="170605263"/>
    <trip id="passenger205" type="passenger_passenger" depart="71.19" from="70707218" to="43947365-AddedOnRampEdge"/>
    <trip id="passenger206" type="passenger_passenger" depart="71.54" from="43948501" to="170601197"/>
    <trip id="passenger210" type="passenger_passenger" depart="72.93" from="42064236" to="43947365"/>
    <trip id="passenger211" type="passenger_passenger" depart="73.28" from="277654571" to="43947365"/>
    <trip id="passenger212" type="passenger_passenger" depart="73.62" from="42064236" to="170601197"/>
    <trip id="passenger213" type="passenger_passenger" depart="73.97" from="43948501" to="1118511056"/>
    <trip id="passenger214" type="passenger_passenger" depart="74.32" from="43948501" to="43947368"/>
    <trip id="passenger215" type="passenger_passenger" depart="74.67" from="206489379" to="170605263"/>
    <trip id="passenger218" type="passenger_passenger" depart="75.71" from="277654571" to="43947368"/>
    <trip id="passenger219" type="passenger_passenger" depart="76.05" from="42064236" to="43947368"/>
    <trip id="passenger220" type="passenger_passenger" depart="76.40" from="43948501" to="660731151"/>
    <trip id="passenger222" type="passenger_passenger" depart="77.10" from="70707218" to="43947365"/>
    <trip id="passenger225" type="passenger_passenger" depart="78.14" from="70707218" to="43947365"/>
    <trip id="passenger226" type="passenger_passenger" depart="78.49" from="42064236" to="170601197"/>
    <trip id="passenger227" type="passenger_passenger" depart="78.83" from="277654571" to="43947365"/>
    <trip id="passenger229" type="passenger_passenger" depart="79.53" from="43948501" to="170601197"/>
    <trip id="passenger230" type="passenger_passenger" depart="79.87" from="1139168722" to="170605263"/>
    <trip id="passenger231" type="passenger_passenger" depart="80.22" from="277654571" to="170605263"/>
    <trip id="passenger232" type="passenger_passenger" depart="80.57" from="42064236" to="170601197"/>
    <trip id="passenger233" type="passenger_passenger" depart="80.92" from="277654571" to="43947365"/>
    <trip id="passenger234" type="passenger_passenger" depart="81.26" from="43948501" to="1122897133"/>
    <trip id="passenger236" type="passenger_passenger" depart="81.96" from="42064236" to="170601197"/>
    <trip id="passenger237" type="passenger_passenger" depart="82.31" from="42064236" to="43947368"/>
    <trip id="passenger242" type="passenger_passenger" depart="84.04" from="70707218" to="43947369#1"/>
    <trip id="passenger243" type="passenger_passenger" depart="84.39" from="42064236" to="43947365-AddedOnRampEdge"/>
    <trip id="passenger244" type="passenger_passenger" depart="84.74" from="42064236" to="43947365"/>
    <trip id="passenger246" type="passenger_passenger" depart="85.43" from="42064236" to="1120029183"/>
    <trip id="passenger248" type="passenger_passenger" depart="86.13" from="42064236" to="170601197"/>
    <trip id="passenger249" type="passenger_passenger" depart="86.47" from="42064236" to="170601197"/>
    <trip id="passenger251" type="passenger_passenger" depart="87.17" from="42064236" to="43947365"/>
    <trip id="passenger255" type="passenger_passenger" depart="88.56" from="277654571" to="170605263"/>
    <trip id="passenger256" type="passenger_passenger" depart="88.90" from="43948501" to="170605263"/>
    <trip id="passenger257" type="passenger_passenger" depart="89.25" from="43948501" to="43947368"/>
    <trip id="passenger258" type="passenger_passenger" depart="89.60" from="277654571" to="1139168722"/>
    <trip id="passenger260" type="passenger_passenger" depart="90.29" from="70707218-AddedOffRampEdge" to="170605263"/>
    <trip id="passenger261" type="passenger_passenger" depart="90.64" from="43948501" to="43947368"/>
    <trip id="passenger262" type="passenger_passenger" depart="90.99" from="43948501" to="43947368"/>
    <trip id="passenger263" type="passenger_passenger" depart="91.33" from="70707218" to="170601197"/>
    <trip id="passenger264" type="passenger_passenger" depart="91.68" from="1120029182" to="170601197"/>
    <trip id="passenger265" type="passenger_passenger" depart="92.03" from="206489382" to="43947365"/>
    <trip id="passenger267" type="passenger_passenger" depart="92.72" from="43948501" to="43947368"/>
    <trip id="passenger268" type="passenger_passenger" depart="93.07" from="277654571" to="43947365"/>
    <trip id="passenger269" type="passenger_passenger" depart="93.42" from="43948501" to="170601197"/>
    <trip id="passenger272" type="passenger_passenger" depart="94.46" from="277654571" to="43947365"/>
    <trip id="passenger273" type="passenger_passenger" depart="94.81" from="70707218" to="170605263"/>
    <trip id="passenger276" type="passenger_passenger" depart="95.85" from="170605269" to="43947368"/>
    <trip id="passenger277" type="passenger_passenger" depart="96.20" from="70707218" to="43947365"/>
    <trip id="passenger279" type="passenger_passenger" depart="96.89" from="43948501" to="170605263"/>
    <trip id="passenger284" type="passenger_passenger" depart="98.63" from="43948501" to="43947368"/>
    <trip id="passenger285" type="passenger_passenger" depart="98.97" from="43948501" to="170605263"/>
    <trip id="passenger287" type="passenger_passenger" depart="99.67" from="277654571" to="43947368"/>
    <trip id="passenger288" type="passenger_passenger" depart="100.02" from="42064236" to="170605269"/>
    <trip id="passenger289" type="passenger_passenger" depart="100.36" from="42064236" to="43947365"/>
    <trip id="passenger290" type="passenger_passenger" depart="100.71" from="277654571" to="43947368"/>
    <trip id="passenger292" type="passenger_passenger" depart="101.41" from="70707218" to="170601197"/>
    <trip id="passenger293" type="passenger_passenger" depart="101.75" from="42064236" to="43947365"/>
    <trip id="passenger294" type="passenger_passenger" depart="102.10" from="42064236" to="1120029183"/>
    <trip id="passenger295" type="passenger_passenger" depart="102.45" from="70707218" to="170601197"/>
    <trip id="passenger296" type="passenger_passenger" depart="102.80" from="277654571" to="43947368"/>
    <trip id="passenger297" type="passenger_passenger" depart="103.14" from="41844004" to="43947368"/>
    <trip id="passenger298" type="passenger_passenger" depart="103.49" from="43948501" to="170601197"/>
    <trip id="passenger299" type="passenger_passenger" depart="103.84" from="1118511056-AddedOffRampEdge" to="43947368-AddedOnRampEdge"/>
    <trip id="passenger300" type="passenger_passenger" depart="104.18" from="170601193" to="43947365"/>
    <trip id="passenger301" type="passenger_passenger" depart="104.53" from="42064236" to="43947368"/>
    <trip id="passenger303" type="passenger_passenger" depart="105.23" from="42064236" to="43947368"/>
    <trip id="passenger304" type="passenger_passenger" depart="105.57" from="170605264" to="170601197"/>
    <trip id="passenger305" type="passenger_passenger" depart="105.92" from="43948501" to="170605263"/>
    <trip id="passenger308" type="passenger_passenger" depart="106.96" from="43948501" to="170605263"/>
    <trip id="passenger309" type="passenger_passenger" depart="107.31" from="43948501" to="170601197"/>
    <trip id="passenger312" type="passenger_passenger" depart="108.35" from="42064236" to="43947368"/>
    <trip id="passenger314" type="passenger_passenger" depart="109.05" from="42064236" to="43947365"/>
    <trip id="passenger315" type="passenger_passenger" depart="109.39" from="70707218" to="406802122"/>
    <trip id="passenger319" type="passenger_passenger" depart="110.78" from="42064236" to="170601197"/>
    <trip id="passenger321" type="passenger_passenger" depart="111.48" from="43948501" to="170601197"/>
    <trip id="passenger322" type="passenger_passenger" depart="111.82" from="70707218" to="206489379-AddedOnRampEdge"/>
    <trip id="passenger323" type="passenger_passenger" depart="112.17" from="70707218" to="43947365"/>
    <trip id="passenger325" type="passenger_passenger" depart="112.87" from="277654571" to="1120029191"/>
    <trip id="passenger327" type="passenger_passenger" depart="113.56" from="70707218" to="170605263"/>
    <trip id="passenger331" type="passenger_passenger" depart="114.95" from="70707218-AddedOffRampEdge" to="170601197"/>
    <trip id="passenger333" type="passenger_passenger" depart="115.64" from="43948501-AddedOffRampEdge" to="170601197"/>
    <trip id="passenger335" type="passenger_passenger" depart="116.34" from="42064236" to="43947368"/>
    <trip id="passenger336" type="passenger_passenger" depart="116.69" from="70707218" to="170605263"/>
    <trip id="passenger338" type="passenger_passenger" depart="117.38" from="43948501" to="43947368-AddedOnRampEdge"/>
    <trip id="passenger340" type="passenger_passenger" depart="118.08" from="43948501" to="170601197"/>
    <trip id="passenger341" type="passenger_passenger" depart="118.42" from="277654571" to="1122897134"/>
    <trip id="passenger342" type="passenger_passenger" depart="118.77" from="1118511056" to="170605263"/>
    <trip id="passenger344" type="passenger_passenger" depart="119.46" from="277654571" to="43947365"/>
    <trip id="passenger345" type="passenger_passenger" depart="119.81" from="43948501" to="170605263"/>
    <trip id="passenger346" type="passenger_passenger" depart="120.16" from="43948501" to="43947368"/>
    <trip id="passenger348" type="passenger_passenger" depart="120.85" from="43948501" to="43947368"/>
    <trip id="passenger350" type="passenger_passenger" depart="121.55" from="43948501" to="43947368"/>
    <trip id="passenger352" type="passenger_passenger" depart="122.24" from="277654571" to="170605263"/>
    <trip id="passenger360" type="passenger_passenger" depart="125.02" from="170605264" to="43947382"/>
    <trip id="passenger361" type="passenger_passenger" depart="125.37" from="70707218" to="43947365"/>
    <trip id="passenger362" type="passenger_passenger" depart="125.72" from="70707218" to="70707218-AddedOffRampEdge"/>
    <trip id="passenger363" type="passenger_passenger" depart="126.06" from="43948501" to="170601197"/>
    <trip id="passenger364" type="passenger_passenger" depart="126.41" from="1120029189" to="43947368"/>
    <trip id="passenger365" type="passenger_passenger" depart="126.76" from="42064236" to="43947365"/>
    <trip id="passenger366" type="passenger_passenger" depart="127.10" from="70707218" to="170601197"/>
    <trip id="passenger368" type="passenger_passenger" depart="127.80" from="42064236" to="170601197"/>
    <trip id="passenger369" type="passenger_passenger" depart="128.15" from="42064105" to="170605263"/>
    <trip id="passenger370" type="passenger_passenger" depart="128.49" from="43948501" to="43947368"/>
    <trip id="passenger371" type="passenger_passenger" depart="128.84" from="277654571" to="43947365"/>
    <trip id="passenger372" type="passenger_passenger" depart="129.19" from="277654571" to="43947368-AddedOnRampEdge"/>
    <trip id="passenger376" type="passenger_passenger" depart="130.58" from="42064236" to="206489382-AddedOffRampEdge"/>
    <trip id="passenger377" type="passenger_passenger" depart="130.92" from="70707218" to="43947365"/>
    <trip id="passenger379" type="passenger_passenger" depart="131.62" from="277654571" to="170605263"/>
    <trip id="passenger381" type="passenger_passenger" depart="132.31" from="43948501" to="170601197"/>
    <trip id="passenger382" type="passenger_passenger" depart="132.66" from="42064236" to="43947368"/>
    <trip id="passenger383" type="passenger_passenger" depart="133.01" from="42064236" to="43947365"/>
    <trip id="passenger385" type="passenger_passenger" depart="133.70" from="43948501" to="170601197"/>
    <trip id="passenger387" type="passenger_passenger" depart="134.40" from="42064236" to="170601197"/>
    <trip id="passenger389" type="passenger_passenger" depart="135.09" from="42064236" to="170601197"/>
    <trip id="passenger392" type="passenger_passenger" depart="136.13" from="277654571" to="43947368"/>
    <trip id="passenger393" type="passenger_passenger" depart="136.48" from="70707218" to="170601197"/>
    <trip id="passenger397" type="passenger_passenger" depart="137.87" from="277654571" to="43947368"/>
    <trip id="passenger398" type="passenger_passenger" depart="138.22" from="42064236" to="43947368"/>
    <trip id="passenger399" type="passenger_passenger" depart="138.56" from="42064236" to="43947368"/>
    <trip id="passenger400" type="passenger_passenger" depart="138.91" from="277654571" to="170605263"/>
    <trip id="passenger402" type="passenger_passenger" depart="139.61" from="42064236" to="170601197"/>
    <trip id="passenger406" type="passenger_passenger" depart="141.00" from="277654571" to="43947365"/>
    <trip id="passenger407" type="passenger_passenger" depart="141.34" from="43947369#1" to="170601197"/>
    <trip id="passenger408" type="passenger_passenger" depart="141.69" from="43948501" to="1120029189"/>
    <trip id="passenger410" type="passenger_passenger" depart="142.39" from="70707218" to="170605263"/>
    <trip id="passenger411" type="passenger_passenger" depart="142.73" from="43948501" to="43947368"/>
    <trip id="passenger412" type="passenger_passenger" depart="143.08" from="70707218" to="206489379-AddedOnRampEdge"/>
    <trip id="passenger415" type="passenger_passenger" depart="144.12" from="70707218" to="170605263"/>
    <trip id="passenger417" type="passenger_passenger" depart="144.82" from="43948501" to="170605263"/>
    <trip id="passenger418" type="passenger_passenger" depart="145.16" from="43948501" to="170601197"/>
    <trip id="passenger421" type="passenger_passenger" depart="146.21" from="43948501" to="43947368"/>
    <trip id="passenger424" type="passenger_passenger" depart="147.25" from="43948501" to="43947368"/>
    <trip id="passenger425" type="passenger_passenger" depart="147.59" from="70707218" to="1120029186"/>
    <trip id="passenger427" type="passenger_passenger" depart="148.29" from="70707218" to="70707218-AddedOffRampEdge"/>
    <trip id="passenger428" type="passenger_passenger" depart="148.64" from="43948501" to="170605263"/>
    <trip id="passenger429" type="passenger_passenger" depart="148.98" from="170605269" to="43947365"/>
    <trip id="passenger430" type="passenger_passenger" depart="149.33" from="70707218" to="170605263"/>
    <trip id="passenger431" type="passenger_passenger" depart="149.68" from="43948501" to="43947368"/>
    <trip id="passenger432" type="passenger_passenger" depart="150.03" from="1120029190" to="43947368"/>
    <trip id="passenger433" type="passenger_passenger" depart="150.37" from="277654571" to="170605263"/>