<?xml version="1.0" encoding="UTF-8"?>

<!-- generated on 2024-12-04 18:09:29.272548 by main.py UNKNOWN
<configuration>
    <net-file value="/root/myvenv/nextpj/src/backend/data/scenario_1733335764/osm.net.xml.gz"/>
    <output-trip-file value="/root/myvenv/nextpj/src/backend/data/scenario_1733335764/osm.passenger.trips.xml"/>
    <route-file value="/root/myvenv/nextpj/src/backend/data/scenario_1733335764/osm.passenger.rou.xml"/>
    <prefix value="passenger"/>
    <vehicle-class value="passenger"/>
    <fringe-factor value="30.0"/>
    <validate value="True"/>
    <insertion-density value="100.0"/>
</configuration>
-->

<!-- generated on 2024-12-04 18:09:29 by Eclipse SUMO duarouter Version 1.21.0
<duarouterConfiguration xmlns:xsi="http://www.w3.org/2001/XMLSchema-instance" xsi:noNamespaceSchemaLocation="http://sumo.dlr.de/xsd/duarouterConfiguration.xsd">

    <input>
        <net-file value="/root/myvenv/nextpj/src/backend/data/scenario_1733335764/osm.net.xml.gz"/>
        <route-files value="/root/myvenv/nextpj/src/backend/data/scenario_1733335764/osm.passenger.trips.xml"/>
    </input>

    <output>
        <output-file value="/root/myvenv/nextpj/src/backend/data/scenario_1733335764/osm.passenger.trips.xml.tmp"/>
        <alternatives-output value="NUL"/>
        <write-trips value="true"/>
    </output>

    <time>
        <begin value="0.0"/>
        <end value="3600.0"/>
    </time>

    <report>
        <no-warnings value="true"/>
        <ignore-errors value="true"/>
        <no-step-log value="true"/>
    </report>

</duarouterConfiguration>
-->

<routes xmlns:xsi="http://www.w3.org/2001/XMLSchema-instance" xsi:noNamespaceSchemaLocation="http://sumo.dlr.de/xsd/routes_file.xsd">
    <vType id="passenger_passenger" vClass="passenger"/>
    <trip id="passenger3" type="passenger_passenger" depart="1.18" from="70707218" to="170601197"/>
    <trip id="passenger12" type="passenger_passenger" depart="4.72" from="70707218" to="170605263"/>
    <trip id="passenger14" type="passenger_passenger" depart="5.51" from="70707218" to="43947365"/>
    <trip id="passenger16" type="passenger_passenger" depart="6.30" from="42064236" to="43947369#1-AddedOnRampEdge"/>
    <trip id="passenger19" type="passenger_passenger" depart="7.48" from="70707218" to="43947365"/>
    <trip id="passenger21" type="passenger_passenger" depart="8.27" from="1139168722" to="170605263"/>
    <trip id="passenger26" type="passenger_passenger" depart="10.24" from="206489382-AddedOffRampEdge" to="43947368"/>
    <trip id="passenger28" type="passenger_passenger" depart="11.02" from="1120029181" to="43947365"/>
    <trip id="passenger29" type="passenger_passenger" depart="11.42" from="1118511056-AddedOffRampEdge" to="170605263"/>
    <trip id="passenger30" type="passenger_passenger" depart="11.81" from="70707218" to="43947365"/>
    <trip id="passenger31" type="passenger_passenger" depart="12.21" from="42064236" to="43947365"/>
    <trip id="passenger36" type="passenger_passenger" depart="14.17" from="70707218" to="170605263"/>
    <trip id="passenger38" type="passenger_passenger" depart="14.96" from="70707218" to="170605263"/>
    <trip id="passenger40" type="passenger_passenger" depart="15.75" from="42064236" to="170601197"/>
    <trip id="passenger41" type="passenger_passenger" depart="16.14" from="42064236" to="43947368"/>
    <trip id="passenger47" type="passenger_passenger" depart="18.50" from="1118511056" to="170605263"/>
    <trip id="passenger48" type="passenger_passenger" depart="18.90" from="70707218-AddedOffRampEdge" to="406802122"/>
    <trip id="passenger52" type="passenger_passenger" depart="20.47" from="206489382-AddedOffRampEdge" to="43947365"/>
    <trip id="passenger53" type="passenger_passenger" depart="20.87" from="1118511056" to="170605263"/>
    <trip id="passenger55" type="passenger_passenger" depart="21.65" from="70707218" to="170601197"/>
    <trip id="passenger56" type="passenger_passenger" depart="22.05" from="42064236" to="170601197"/>
    <trip id="passenger58" type="passenger_passenger" depart="22.84" from="277654571" to="43947365"/>
    <trip id="passenger59" type="passenger_passenger" depart="23.23" from="42064236" to="170601197"/>
    <trip id="passenger62" type="passenger_passenger" depart="24.41" from="1118511056" to="170605263"/>
    <trip id="passenger63" type="passenger_passenger" depart="24.80" from="1118511056" to="43947368"/>
    <trip id="passenger68" type="passenger_passenger" depart="26.77" from="1118511056" to="43947368"/>
    <trip id="passenger69" type="passenger_passenger" depart="27.17" from="660731151" to="170601197"/>
    <trip id="passenger71" type="passenger_passenger" depart="27.95" from="206489382" to="43947368"/>
    <trip id="passenger73" type="passenger_passenger" depart="28.74" from="42064236" to="43947365"/>
    <trip id="passenger74" type="passenger_passenger" depart="29.13" from="1120029191" to="170605263"/>
    <trip id="passenger75" type="passenger_passenger" depart="29.53" from="70707218-AddedOffRampEdge" to="43947365"/>
    <trip id="passenger78" type="passenger_passenger" depart="30.71" from="277654571" to="43947365"/>
    <trip id="passenger83" type="passenger_passenger" depart="32.68" from="170605264" to="43947365"/>
    <trip id="passenger85" type="passenger_passenger" depart="33.47" from="70707218" to="43947365"/>
    <trip id="passenger86" type="passenger_passenger" depart="33.86" from="42064236" to="43947368"/>
    <trip id="passenger87" type="passenger_passenger" depart="34.25" from="660731151" to="170601197"/>
    <trip id="passenger88" type="passenger_passenger" depart="34.65" from="1118511056" to="170605263"/>
    <trip id="passenger89" type="passenger_passenger" depart="35.04" from="277654571" to="170605263"/>
    <trip id="passenger91" type="passenger_passenger" depart="35.83" from="70707218" to="170601197"/>
    <trip id="passenger92" type="passenger_passenger" depart="36.22" from="277654571" to="170605263"/>
    <trip id="passenger93" type="passenger_passenger" depart="36.62" from="70707218" to="170601197"/>
    <trip id="passenger101" type="passenger_passenger" depart="39.76" from="70707218" to="170601197"/>
    <trip id="passenger102" type="passenger_passenger" depart="40.16" from="42064236" to="170601197"/>
    <trip id="passenger105" type="passenger_passenger" depart="41.34" from="206489382" to="43947368"/>
    <trip id="passenger106" type="passenger_passenger" depart="41.73" from="42064105" to="170605263"/>
    <trip id="passenger107" type="passenger_passenger" depart="42.13" from="70707218" to="70707218-AddedOffRampEdge"/>
    <trip id="passenger108" type="passenger_passenger" depart="42.52" from="42064236" to="43947365"/>
    <trip id="passenger109" type="passenger_passenger" depart="42.91" from="1118511056" to="170605263"/>
    <trip id="passenger110" type="passenger_passenger" depart="43.31" from="70707218" to="43947365"/>
    <trip id="passenger111" type="passenger_passenger" depart="43.70" from="42064236" to="43947365"/>
    <trip id="passenger113" type="passenger_passenger" depart="44.49" from="42064236" to="43947368"/>
    <trip id="passenger114" type="passenger_passenger" depart="44.88" from="1118511056" to="43947368-AddedOnRampEdge"/>
    <trip id="passenger116" type="passenger_passenger" depart="45.67" from="42064236" to="43947365"/>
    <trip id="passenger117" type="passenger_passenger" depart="46.06" from="170605264" to="170601197"/>
    <trip id="passenger118" type="passenger_passenger" depart="46.46" from="70707218" to="170601197"/>
    <trip id="passenger119" type="passenger_passenger" depart="46.85" from="42064236" to="43947365"/>
    <trip id="passenger120" type="passenger_passenger" depart="47.25" from="277654571" to="43947365"/>
    <trip id="passenger121" type="passenger_passenger" depart="47.64" from="42064236" to="43947368"/>
    <trip id="passenger125" type="passenger_passenger" depart="49.21" from="277654571" to="43947365"/>
    <trip id="passenger126" type="passenger_passenger" depart="49.61" from="1118511056" to="170605263"/>
    <trip id="passenger127" type="passenger_passenger" depart="50.00" from="70707218-AddedOffRampEdge" to="70707218-AddedOffRampEdge"/>
    <trip id="passenger129" type="passenger_passenger" depart="50.79" from="206489382" to="43947368"/>
    <trip id="passenger132" type="passenger_passenger" depart="51.97" from="70707218" to="43947365"/>
    <trip id="passenger133" type="passenger_passenger" depart="52.36" from="42064236" to="43947390#1"/>
    <trip id="passenger136" type="passenger_passenger" depart="53.54" from="43947390#1" to="43947368"/>
    <trip id="passenger140" type="passenger_passenger" depart="55.12" from="660731151" to="170601197"/>
    <trip id="passenger142" type="passenger_passenger" depart="55.91" from="42064236" to="43947368"/>
    <trip id="passenger143" type="passenger_passenger" depart="56.30" from="70707218" to="170601197"/>
    <trip id="passenger145" type="passenger_passenger" depart="57.09" from="1118511056" to="43947368"/>
    <trip id="passenger149" type="passenger_passenger" depart="58.66" from="1118511056" to="43947368"/>
    <trip id="passenger150" type="passenger_passenger" depart="59.06" from="70707218" to="42064105-AddedOffRampEdge"/>
    <trip id="passenger151" type="passenger_passenger" depart="59.45" from="70707218" to="43947365"/>
    <trip id="passenger153" type="passenger_passenger" depart="60.24" from="277654571" to="43947368"/>
    <trip id="passenger155" type="passenger_passenger" depart="61.03" from="70707218" to="170601197"/>
    <trip id="passenger158" type="passenger_passenger" depart="62.21" from="277654571" to="43947365"/>
    <trip id="passenger159" type="passenger_passenger" depart="62.60" from="1118511056" to="43947368"/>
    <trip id="passenger163" type="passenger_passenger" depart="64.18" from="277654571" to="43947368"/>
    <trip id="passenger165" type="passenger_passenger" depart="64.96" from="660731151" to="170601197"/>
    <trip id="passenger166" type="passenger_passenger" depart="65.36" from="660731151" to="170601197"/>
    <trip id="passenger168" type="passenger_passenger" depart="66.14" from="1122897134" to="43947368"/>
    <trip id="passenger169" type="passenger_passenger" depart="66.54" from="42064105-AddedOffRampEdge" to="170605263"/>
    <trip id="passenger170" type="passenger_passenger" depart="66.93" from="660731151" to="170601197"/>
    <trip id="passenger172" type="passenger_passenger" depart="67.72" from="277654571" to="43947368"/>
    <trip id="passenger173" type="passenger_passenger" depart="68.11" from="70707218" to="170601197"/>
    <trip id="passenger176" type="passenger_passenger" depart="69.29" from="70707218" to="170601197"/>
    <trip id="passenger177" type="passenger_passenger" depart="69.69" from="70707218" to="170601197"/>
    <trip id="passenger178" type="passenger_passenger" depart="70.08" from="70707218" to="170601197"/>
    <trip id="passenger179" type="passenger_passenger" depart="70.47" from="1118511056" to="170605263"/>
    <trip id="passenger181" type="passenger_passenger" depart="71.26" from="42064236" to="206489382"/>
    <trip id="passenger182" type="passenger_passenger" depart="71.66" from="277654571" to="43947365"/>
    <trip id="passenger184" type="passenger_passenger" depart="72.44" from="1118511056" to="43947368"/>
    <trip id="passenger185" type="passenger_passenger" depart="72.84" from="42064236" to="43947365"/>
    <trip id="passenger187" type="passenger_passenger" depart="73.62" from="277654571" to="1122897134"/>
    <trip id="passenger189" type="passenger_passenger" depart="74.41" from="277654571" to="43947368"/>
    <trip id="passenger191" type="passenger_passenger" depart="75.20" from="277654571" to="170605263"/>
    <trip id="passenger192" type="passenger_passenger" depart="75.59" from="277654571" to="170605263"/>
    <trip id="passenger193" type="passenger_passenger" depart="75.99" from="1118511056" to="170605263"/>
    <trip id="passenger194" type="passenger_passenger" depart="76.38" from="70707218" to="43947365"/>
    <trip id="passenger195" type="passenger_passenger" depart="76.77" from="70707218" to="43947365"/>
    <trip id="passenger197" type="passenger_passenger" depart="77.56" from="1118511056" to="170605263"/>
    <trip id="passenger198" type="passenger_passenger" depart="77.96" from="277654571" to="43947365"/>
    <trip id="passenger200" type="passenger_passenger" depart="78.74" from="406802122" to="170601197"/>
    <trip id="passenger201" type="passenger_passenger" depart="79.14" from="42064236" to="43947368"/>
    <trip id="passenger202" type="passenger_passenger" depart="79.53" from="660731151" to="170601197"/>
    <trip id="passenger206" type="passenger_passenger" depart="81.10" from="660731151" to="170601197"/>
    <trip id="passenger210" type="passenger_passenger" depart="82.68" from="277654571" to="43947365"/>
    <trip id="passenger212" type="passenger_passenger" depart="83.47" from="42064236" to="170601197"/>
    <trip id="passenger215" type="passenger_passenger" depart="84.65" from="1118511056" to="170605263"/>
    <trip id="passenger220" type="passenger_passenger" depart="86.62" from="43947390#1" to="43947390#1"/>
    <trip id="passenger221" type="passenger_passenger" depart="87.01" from="42064236" to="43947368"/>
    <trip id="passenger222" type="passenger_passenger" depart="87.40" from="70707218" to="43947365"/>
    <trip id="passenger225" type="passenger_passenger" depart="88.59" from="70707218" to="43947365"/>
    <trip id="passenger226" type="passenger_passenger" depart="88.98" from="42064236" to="170601197"/>
    <trip id="passenger229" type="passenger_passenger" depart="90.16" from="42064236" to="170601197"/>
    <trip id="passenger230" type="passenger_passenger" depart="90.55" from="1118511056" to="170605263"/>
    <trip id="passenger232" type="passenger_passenger" depart="91.34" from="42064236" to="170601197"/>
    <trip id="passenger233" type="passenger_passenger" depart="91.74" from="170601193" to="43947365"/>
    <trip id="passenger237" type="passenger_passenger" depart="93.31" from="277654571" to="43947368"/>
    <trip id="passenger238" type="passenger_passenger" depart="93.70" from="42064236" to="43947365"/>
    <trip id="passenger241" type="passenger_passenger" depart="94.88" from="277654571" to="43947365-AddedOnRampEdge"/>
    <trip id="passenger243" type="passenger_passenger" depart="95.67" from="277654571" to="43947365"/>
    <trip id="passenger244" type="passenger_passenger" depart="96.07" from="42064236" to="43947365"/>
    <trip id="passenger247" type="passenger_passenger" depart="97.25" from="277654571" to="43947365"/>
    <trip id="passenger250" type="passenger_passenger" depart="98.43" from="42064236" to="1120029186"/>
    <trip id="passenger251" type="passenger_passenger" depart="98.82" from="277654571" to="43947365"/>
    <trip id="passenger253" type="passenger_passenger" depart="99.61" from="1118511056" to="170605263"/>
    <trip id="passenger254" type="passenger_passenger" depart="100.00" from="1118511056" to="170605263"/>
    <trip id="passenger255" type="passenger_passenger" depart="100.40" from="1120029196" to="170605263"/>
    <trip id="passenger260" type="passenger_passenger" depart="102.37" from="70707218-AddedOffRampEdge" to="170605263"/>
    <trip id="passenger263" type="passenger_passenger" depart="103.55" from="70707218" to="170601197"/>
    <trip id="passenger266" type="passenger_passenger" depart="104.73" from="42064236" to="170601197"/>
    <trip id="passenger269" type="passenger_passenger" depart="105.91" from="660731151" to="170601197"/>
    <trip id="passenger270" type="passenger_passenger" depart="106.30" from="660731151" to="43947369#1"/>
    <trip id="passenger272" type="passenger_passenger" depart="107.09" from="277654571" to="43947365"/>
    <trip id="passenger273" type="passenger_passenger" depart="107.48" from="70707218" to="170605263"/>
    <trip id="passenger276" type="passenger_passenger" depart="108.66" from="1118511056" to="43947368"/>
    <trip id="passenger277" type="passenger_passenger" depart="109.06" from="70707218" to="43947365"/>
    <trip id="passenger280" type="passenger_passenger" depart="110.24" from="277654571" to="170605263"/>
    <trip id="passenger283" type="passenger_passenger" depart="111.42" from="1118511056" to="43947368-AddedOnRampEdge"/>
    <trip id="passenger286" type="passenger_passenger" depart="112.60" from="660731151" to="43947369#1"/>
    <trip id="passenger287" type="passenger_passenger" depart="113.00" from="206489382-AddedOffRampEdge" to="43947368"/>
    <trip id="passenger288" type="passenger_passenger" depart="113.39" from="42064236" to="170605269"/>
    <trip id="passenger289" type="passenger_passenger" depart="113.78" from="277654571" to="43947365"/>
    <trip id="passenger290" type="passenger_passenger" depart="114.18" from="206489382-AddedOffRampEdge" to="43947368"/>
    <trip id="passenger291" type="passenger_passenger" depart="114.57" from="660731151" to="170601197"/>
    <trip id="passenger292" type="passenger_passenger" depart="114.96" from="70707218" to="170601197"/>
    <trip id="passenger293" type="passenger_passenger" depart="115.36" from="42064232" to="43947365"/>
    <trip id="passenger295" type="passenger_passenger" depart="116.15" from="70707218" to="170601197"/>
    <trip id="passenger296" type="passenger_passenger" depart="116.54" from="1122897133" to="43947368"/>
    <trip id="passenger297" type="passenger_passenger" depart="116.93" from="277654571" to="43947368"/>
    <trip id="passenger298" type="passenger_passenger" depart="117.33" from="660731151" to="170601197"/>
    <trip id="passenger299" type="passenger_passenger" depart="117.72" from="1118511056" to="43947368"/>
    <trip id="passenger301" type="passenger_passenger" depart="118.51" from="42064236" to="43947365-AddedOnRampEdge"/>
    <trip id="passenger303" type="passenger_passenger" depart="119.29" from="42064236" to="43947368"/>
    <trip id="passenger309" type="passenger_passenger" depart="121.66" from="660731151" to="170601197"/>
    <trip id="passenger312" type="passenger_passenger" depart="122.84" from="42064236" to="43947368"/>
    <trip id="passenger314" type="passenger_passenger" depart="123.63" from="42064236" to="43947365"/>
    <trip id="passenger319" type="passenger_passenger" depart="125.59" from="42064236" to="170601197"/>
    <trip id="passenger321" type="passenger_passenger" depart="126.38" from="660731151" to="170601197"/>
    <trip id="passenger322" type="passenger_passenger" depart="126.78" from="70707218" to="206489379"/>
    <trip id="passenger323" type="passenger_passenger" depart="127.17" from="70707218" to="43947365"/>
    <trip id="passenger331" type="passenger_passenger" depart="130.32" from="70707218" to="170601197"/>
    <trip id="passenger333" type="passenger_passenger" depart="131.11" from="660731151" to="170601197"/>
    <trip id="passenger336" type="passenger_passenger" depart="132.29" from="70707218" to="170605263"/>
    <trip id="passenger337" type="passenger_passenger" depart="132.68" from="42064236" to="43947365"/>
    <trip id="passenger342" type="passenger_passenger" depart="134.65" from="1118511056" to="170605263"/>
    <trip id="passenger344" type="passenger_passenger" depart="135.44" from="170601193" to="43947365"/>
    <trip id="passenger352" type="passenger_passenger" depart="138.59" from="1118511056-AddedOffRampEdge" to="170605263"/>
    <trip id="passenger358" type="passenger_passenger" depart="140.95" from="1118511056" to="170605263"/>
    <trip id="passenger361" type="passenger_passenger" depart="142.13" from="70707218" to="43947365"/>
    <trip id="passenger362" type="passenger_passenger" depart="142.52" from="70707218" to="70707218-AddedOffRampEdge"/>
    <trip id="passenger363" type="passenger_passenger" depart="142.92" from="660731151" to="170601197"/>
    <trip id="passenger365" type="passenger_passenger" depart="143.71" from="42064236" to="43947365"/>
    <trip id="passenger366" type="passenger_passenger" depart="144.10" from="70707218" to="170601197"/>
    <trip id="passenger367" type="passenger_passenger" depart="144.49" from="42064236" to="43947365"/>
    <trip id="passenger368" type="passenger_passenger" depart="144.89" from="42064236" to="170601197"/>
    <trip id="passenger369" type="passenger_passenger" depart="145.28" from="277654571" to="170605263"/>
    <trip id="passenger371" type="passenger_passenger" depart="146.07" from="277654571" to="43947365"/>
    <trip id="passenger372" type="passenger_passenger" depart="146.46" from="277654571" to="43947368"/>
    <trip id="passenger374" type="passenger_passenger" depart="147.25" from="42064105" to="170605263"/>
    <trip id="passenger377" type="passenger_passenger" depart="148.43" from="70707218" to="43947365"/>
    <trip id="passenger381" type="passenger_passenger" depart="150.00" from="660731151" to="170601197"/>
    <trip id="passenger382" type="passenger_passenger" depart="150.40" from="42064236" to="43947368"/>
    <trip id="passenger383" type="passenger_passenger" depart="150.79" from="277654571" to="43947365"/>
    <trip id="passenger385" type="passenger_passenger" depart="151.58" from="42064236" to="170601197"/>
    <trip id="passenger387" type="passenger_passenger" depart="152.37" from="42064236" to="170601197"/>
    <trip id="passenger389" type="passenger_passenger" depart="153.15" from="42064105-AddedOffRampEdge" to="170601197"/>
    <trip id="passenger390" type="passenger_passenger" depart="153.55" from="70707218" to="206489379-AddedOnRampEdge"/>
    <trip id="passenger392" type="passenger_passenger" depart="154.34" from="277653336" to="43947368"/>
    <trip id="passenger393" type="passenger_passenger" depart="154.73" from="70707218" to="170601197"/>
    <trip id="passenger397" type="passenger_passenger" depart="156.30" from="277653336" to="43947368"/>
    <trip id="passenger398" type="passenger_passenger" depart="156.70" from="277654571" to="43947368"/>
    <trip id="passenger399" type="passenger_passenger" depart="157.09" from="42064236" to="43947368"/>
    <trip id="passenger400" type="passenger_passenger" depart="157.48" from="277654571" to="170605263"/>
    <trip id="passenger402" type="passenger_passenger" depart="158.27" from="42064236" to="170601197"/>
    <trip id="passenger405" type="passenger_passenger" depart="159.45" from="42064105" to="170605263"/>
    <trip id="passenger406" type="passenger_passenger" depart="159.85" from="1120029186" to="43947365"/>
    <trip id="passenger407" type="passenger_passenger" depart="160.24" from="42064236" to="170601197"/>
    <trip id="passenger411" type="passenger_passenger" depart="161.82" from="43947390#1" to="43947368"/>
    <trip id="passenger412" type="passenger_passenger" depart="162.21" from="70707218" to="206489379-AddedOnRampEdge"/>
    <trip id="passenger414" type="passenger_passenger" depart="163.00" from="42064236" to="43947368"/>
    <trip id="passenger415" type="passenger_passenger" depart="163.39" from="70707218" to="170605263"/>
    <trip id="passenger419" type="passenger_passenger" depart="164.97" from="42064236" to="43947369#1-AddedOnRampEdge"/>
    <trip id="passenger420" type="passenger_passenger" depart="165.36" from="277654571" to="43947365"/>
    <trip id="passenger423" type="passenger_passenger" depart="166.54" from="277654571" to="170605263"/>
    <trip id="passenger427" type="passenger_passenger" depart="168.12" from="70707218" to="70707218-AddedOffRampEdge"/>
    <trip id="passenger430" type="passenger_passenger" depart="169.30" from="70707218" to="170605263"/>
    <trip id="passenger432" type="passenger_passenger" depart="170.08" from="1118511056" to="43947368"/>
    <trip id="passenger433" type="passenger_passenger" depart="170.48" from="277654571" to="170605263"/>
    <trip id="passenger435" type="passenger_passenger" depart="171.26" from="42064236" to="43947368"/>
    <trip id="passenger437" type="passenger_passenger" depart="172.05" from="70707218" to="43947365"/>
    <trip id="passenger438" type="passenger_passenger" depart="172.45" from="170605269" to="43947368"/>
    <trip id="passenger439" type="passenger_passenger" depart="172.84" from="1118511056" to="170605263"/>
    <trip id="passenger441" type="passenger_passenger" depart="173.63" from="1118511056" to="43947368"/>
    <trip id="passenger442" type="passenger_passenger" depart="174.02" from="70707218" to="43947365"/>
    <trip id="passenger443" type="passenger_passenger" depart="174.41" from="1118511056" to="170605263"/>
    <trip id="passenger444" type="passenger_passenger" depart="174.81" from="277654571" to="43947365"/>
    <trip id="passenger448" type="passenger_passenger" depart="176.38" from="42064236" to="170601197"/>
    <trip id="passenger449" type="passenger_passenger" depart="176.78" from="42064236" to="43947365"/>
    <trip id="passenger450" type="passenger_passenger" depart="177.17" from="70707218" to="170605263"/>
    <trip id="passenger451" type="passenger_passenger" depart="177.56" from="70707218" to="43947365"/>
    <trip id="passenger455" type="passenger_passenger" depart="179.14" from="42064236" to="43947368"/>
    <trip id="passenger456" type="passenger_passenger" depart="179.53" from="277654571" to="43947368"/>
    <trip id="passenger461" type="passenger_passenger" depart="181.50" from="42064236" to="43947368"/>
    <trip id="passenger464" type="passenger_passenger" depart="182.68" from="660731151" to="170601197"/>
    <trip id="passenger465" type="passenger_passenger" depart="183.08" from="277654571" to="43947365"/>
    <trip id="passenger466" type="passenger_passenger" depart="183.47" from="1120029182" to="170601197"/>
    <trip id="passenger467" type="passenger_passenger" depart="183.86" from="42064236" to="43947369#1-AddedOnRampEdge"/>
    <trip id="passenger468" type="passenger_passenger" depart="184.26" from="42064236" to="43947368"/>
    <trip id="passenger469" type="passenger_passenger" depart="184.65" from="660731151" to="170601197"/>
    <trip id="passenger473" type="passenger_passenger" depart="186.23" from="70707218" to="170601197"/>
    <trip id="passenger477" type="passenger_passenger" depart="187.80" from="277654571" to="43947368"/>
    <trip id="passenger483" type="passenger_passenger" depart="190.16" from="1118511056" to="43947368"/>
    <trip id="passenger484" type="passenger_passenger" depart="190.56" from="42064236" to="43947368"/>
    <trip id="passenger487" type="passenger_passenger" depart="191.74" from="277654571" to="170605263"/>
    <trip id="passenger488" type="passenger_passenger" depart="192.13" from="1118511056" to="43947368"/>
    <trip id="passenger489" type="passenger_passenger" depart="192.53" from="277654571" to="206489379"/>
    <trip id="passenger490" type="passenger_passenger" depart="192.92" from="1118511056" to="43947368"/>
    <trip id="passenger491" type="passenger_passenger" depart="193.31" from="1118511056" to="170605263"/>
    <trip id="passenger493" type="passenger_passenger" depart="194.10" from="70707218" to="170605263"/>
    <trip id="passenger494" type="passenger_passenger" depart="194.49" from="660731151" to="170601197"/>
    <trip id="passenger498" type="passenger_passenger" depart="196.07" from="277654571" to="170605263"/>
    <trip id="passenger501" type="passenger_passenger" depart="197.25" from="42064236" to="43947382"/>
    <trip id="passenger502" type="passenger_passenger" depart="197.64" from="277654571" to="170605263"/>
    <trip id="passenger504" type="passenger_passenger" depart="198.43" from="70707218" to="170605263"/>
    <trip id="passenger506" type="passenger_passenger" depart="199.22" from="42064236" to="1120029183"/>
    <trip id="passenger507" type="passenger_passenger" depart="199.61" from="660731151" to="170601197"/>
    <trip id="passenger509" type="passenger_passenger" depart="200.40" from="1118511056" to="43947368"/>
    <trip id="passenger511" type="passenger_passenger" depart="201.19" from="70707218" to="170605263"/>
    <trip id="passenger512" type="passenger_passenger" depart="201.58" from="1118511056" to="43947368"/>
    <trip id="passenger513" type="passenger_passenger" depart="201.97" from="1118511056" to="43947368"/>
    <trip id="passenger517" type="passenger_passenger" depart="203.55" from="1118511056" to="43947368"/>
    <trip id="passenger536" type="passenger_passenger" depart="211.03" from="42064236" to="170601197"/>
    <trip id="passenger539" type="passenger_passenger" depart="212.21" from="660731151" to="170601197"/>
    <trip id="passenger540" type="passenger_passenger" depart="212.60" from="42064105" to="170601197"/>
    <trip id="passenger541" type="passenger_passenger" depart="213.00" from="277654571" to="170605263"/>
    <trip id="passenger543" type="passenger_passenger" depart="213.79" from="277654571" to="43947365"/>
    <trip id="passenger546" type="passenger_passenger" depart="214.97" from="70707218" to="170601197"/>
    <trip id="passenger549" type="passenger_passenger" depart="216.15" from="42064236" to="43947365"/>
    <trip id="passenger551" type="passenger_passenger" depart="216.94" from="277654571" to="43947365"/>
    <trip id="passenger553" type="passenger_passenger" depart="217.72" from="660731151" to="43947369#1-AddedOnRampEdge"/>
    <trip id="passenger555" type="passenger_passenger" depart="218.51" from="42064236" to="170601197"/>
    <trip id="passenger557" type="passenger_passenger" depart="219.30" from="1118511056" to="43947368"/>
    <trip id="passenger558" type="passenger_passenger" depart="219.69" from="277654571" to="43947368"/>
    <trip id="passenger559" type="passenger_passenger" depart="220.09" from="42064236" to="43947368"/>
    <trip id="passenger567" type="passenger_passenger" depart="223.23" from="70707218" to="43947365"/>
    <trip id="passenger570" type="passenger_passenger" depart="224.42" from="660731151" to="170601197"/>
    <trip id="passenger571" type="passenger_passenger" depart="224.81" from="277654571" to="170605263"/>