<?xml version="1.0" encoding="UTF-8"?>

<!-- generated on 2024-12-04 18:09:29.552352 by main.py UNKNOWN
<configuration>
    <net-file value="/root/myvenv/nextpj/src/backend/data/scenario_1733335764/osm.net.xml.gz"/>
    <output-trip-file value="/root/myvenv/nextpj/src/backend/data/scenario_1733335764/osm.truck.trips.xml"/>
    <route-file value="/root/myvenv/nextpj/src/backend/data/scenario_1733335764/osm.truck.rou.xml"/>
    <prefix value="truck"/>
    <vehicle-class value="truck"/>
    <fringe-factor value="20.0"/>
    <validate value="True"/>
    <insertion-density value="80.0"/>
</configuration>
-->

<!-- generated on 2024-12-04 18:09:29 by Eclipse SUMO duarouter Version 1.21.0
<duarouterConfiguration xmlns:xsi="http://www.w3.org/2001/XMLSchema-instance" xsi:noNamespaceSchemaLocation="http://sumo.dlr.de/xsd/duarouterConfiguration.xsd">

    <input>
        <net-file value="/root/myvenv/nextpj/src/backend/data/scenario_1733335764/osm.net.xml.gz"/>
        <route-files value="/root/myvenv/nextpj/src/backend/data/scenario_1733335764/osm.truck.trips.xml"/>
    </input>

    <output>
        <output-file value="/root/myvenv/nextpj/src/backend/data/scenario_1733335764/osm.truck.rou.xml"/>
        <alternatives-output value="NUL"/>
    </output>

    <time>
        <begin value="0.0"/>
        <end value="3600.0"/>
    </time>

    <report>
        <no-warnings value="true"/>
        <ignore-errors value="true"/>
        <no-step-log value="true"/>
    </report>

</duarouterConfiguration>
-->

<routes xmlns:xsi="http://www.w3.org/2001/XMLSchema-instance" xsi:noNamespaceSchemaLocation="http://sumo.dlr.de/xsd/routes_file.xsd">
    <vType id="truck_truck" vClass="truck"/>
    <vehicle id="truck0" type="truck_truck" depart="0.00">
        <route edges="42064236 170605264 170605269 1120029182"/>
    </vehicle>
    <vehicle id="truck12" type="truck_truck" depart="5.91">
        <route edges="70707218 70707218-AddedOffRampEdge 42064105 42064105-AddedOffRampEdge 43947386#1 206489379-AddedOnRampEdge 206489379 170605263"/>
    </vehicle>
    <vehicle id="truck13" type="truck_truck" depart="6.40">
        <route edges="1118511056 1118511056-AddedOffRampEdge 1120029196 1139168722"/>
    </vehicle>
    <vehicle id="truck14" type="truck_truck" depart="6.89">
        <route edges="70707218 70707218-AddedOffRampEdge 1120029181 1120029186 43947365-AddedOnRampEdge 43947365"/>
    </vehicle>
    <vehicle id="truck16" type="truck_truck" depart="7.87">
        <route edges="42064236 170605264 170605269 206489382 206489382-AddedOffRampEdge 43947390#1 277653336 206489380 43947382"/>
    </vehicle>
    <vehicle id="truck17" type="truck_truck" depart="8.37">
        <route edges="277654571 1122897134 41844004"/>
    </vehicle>
    <vehicle id="truck27" type="truck_truck" depart="13.29">
        <route edges="43947365-AddedOnRampEdge 43947365"/>
    </vehicle>
    <vehicle id="truck30" type="truck_truck" depart="14.76">
        <route edges="70707218 70707218-AddedOffRampEdge 1120029181 1120029186 43947365-AddedOnRampEdge 43947365"/>
    </vehicle>
    <vehicle id="truck31" type="truck_truck" depart="15.26">
        <route edges="42064236 170605264 170605269 206489382 206489382-AddedOffRampEdge 42064232 1120029186 43947365-AddedOnRampEdge 43947365"/>
    </vehicle>
    <vehicle id="truck36" type="truck_truck" depart="17.72">
        <route edges="70707218 70707218-AddedOffRampEdge 42064105 42064105-AddedOffRampEdge 43947386#1 206489379-AddedOnRampEdge 206489379 170605263"/>
    </vehicle>
    <vehicle id="truck38" type="truck_truck" depart="18.70">
        <route edges="70707218 70707218-AddedOffRampEdge 42064105 42064105-AddedOffRampEdge 43947386#1 206489379-AddedOnRampEdge 206489379 170605263"/>
    </vehicle>
    <vehicle id="truck40" type="truck_truck" depart="19.69">
        <route edges="42064236 170605264 170605269 1120029182 1120029183 43947369#1-AddedOnRampEdge 43947369#1 170601197"/>
    </vehicle>
    <vehicle id="truck41" type="truck_truck" depart="20.18">
        <route edges="42064236 170605264 170605269 206489382 206489382-AddedOffRampEdge 43947390#1 277653336 206489380 43947382 43947368-AddedOnRampEdge 43947368"/>
    </vehicle>
    <vehicle id="truck44" type="truck_truck" depart="21.65">
        <route edges="1118511056 1118511056-AddedOffRampEdge 1122897133 1120029190 1120029189"/>
    </vehicle>
    <vehicle id="truck47" type="truck_truck" depart="23.13">
        <route edges="1118511056 1118511056-AddedOffRampEdge 1120029196 1139168722 206489379-AddedOnRampEdge 206489379 170605263"/>
    </vehicle>
    <vehicle id="truck53" type="truck_truck" depart="26.08">
        <route edges="1118511056 1118511056-AddedOffRampEdge 1120029196 1139168722 206489379-AddedOnRampEdge 206489379 170605263"/>
    </vehicle>
    <vehicle id="truck55" type="truck_truck" depart="27.07">
        <route edges="70707218 70707218-AddedOffRampEdge 42064105 42064105-AddedOffRampEdge 406802122 1120029183 43947369#1-AddedOnRampEdge 43947369#1 170601197"/>
    </vehicle>
    <vehicle id="truck56" type="truck_truck" depart="27.56">
        <route edges="42064236 170605264 170605269 1120029182 1120029183 43947369#1-AddedOnRampEdge 43947369#1 170601197"/>
    </vehicle>
    <vehicle id="truck58" type="truck_truck" depart="28.54">
        <route edges="206489382-AddedOffRampEdge 42064232 1120029186 43947365-AddedOnRampEdge 43947365"/>
    </vehicle>
    <vehicle id="truck59" type="truck_truck" depart="29.04">
        <route edges="42064236 170605264 170605269 1120029182 1120029183 43947369#1-AddedOnRampEdge 43947369#1 170601197"/>
    </vehicle>
    <vehicle id="truck62" type="truck_truck" depart="30.51">
        <route edges="1118511056 1118511056-AddedOffRampEdge 1120029196 1139168722 206489379-AddedOnRampEdge 206489379 170605263"/>
    </vehicle>
    <vehicle id="truck63" type="truck_truck" depart="31.00">
        <route edges="1118511056 1118511056-AddedOffRampEdge 1122897133 1120029190 1120029189 43947368-AddedOnRampEdge 43947368"/>
    </vehicle>
    <vehicle id="truck65" type="truck_truck" depart="31.99">
        <route edges="277654571 1122897134 41844004 1120029190"/>
    </vehicle>
    <vehicle id="truck67" type="truck_truck" depart="32.97">
        <route edges="1118511056 1118511056-AddedOffRampEdge 1120029196 1139168722 206489379-AddedOnRampEdge 206489379"/>
    </vehicle>
    <vehicle id="truck69" type="truck_truck" depart="33.96">
        <route edges="660731151 43947369#1-AddedOnRampEdge 43947369#1 170601197"/>
    </vehicle>
    <vehicle id="truck73" type="truck_truck" depart="35.93">
        <route edges="42064236 170605264 170605269 206489382 206489382-AddedOffRampEdge 42064232 1120029186 43947365-AddedOnRampEdge 43947365"/>
    </vehicle>
    <vehicle id="truck75" type="truck_truck" depart="36.91">
        <route edges="70707218-AddedOffRampEdge 1120029181 1120029186 43947365-AddedOnRampEdge 43947365"/>
    </vehicle>
    <vehicle id="truck78" type="truck_truck" depart="38.39">
        <route edges="277654571 170601193 43947365-AddedOnRampEdge 43947365"/>
    </vehicle>
    <vehicle id="truck81" type="truck_truck" depart="39.86">
        <route edges="1122897134 41844004 1120029190 1120029189 43947368-AddedOnRampEdge 43947368"/>
    </vehicle>
    <vehicle id="truck87" type="truck_truck" depart="42.82">
        <route edges="660731151 43947369#1-AddedOnRampEdge 43947369#1 170601197"/>
    </vehicle>
    <vehicle id="truck88" type="truck_truck" depart="43.31">
        <route edges="1118511056 1118511056-AddedOffRampEdge 1120029196 1139168722 206489379-AddedOnRampEdge 206489379 170605263"/>
    </vehicle>
    <vehicle id="truck92" type="truck_truck" depart="45.28">
        <route edges="277654571 1122897134 1120029191 1139168722 206489379-AddedOnRampEdge 206489379 170605263"/>
    </vehicle>
    <vehicle id="truck93" type="truck_truck" depart="45.77">
        <route edges="70707218 70707218-AddedOffRampEdge 42064105 42064105-AddedOffRampEdge 406802122 1120029183 43947369#1-AddedOnRampEdge 43947369#1 170601197"/>
    </vehicle>
    <vehicle id="truck96" type="truck_truck" depart="47.25">
        <route edges="170605264 170605269 206489382 206489382-AddedOffRampEdge 43947390#1 277653336 206489380 43947382 43947368-AddedOnRampEdge 43947368"/>
    </vehicle>
    <vehicle id="truck97" type="truck_truck" depart="47.74">
        <route edges="277654571 1122897134 41844004 1120029190 1120029189 43947368-AddedOnRampEdge 43947368"/>
    </vehicle>
    <vehicle id="truck101" type="truck_truck" depart="49.71">
        <route edges="70707218 70707218-AddedOffRampEdge 42064105 42064105-AddedOffRampEdge 406802122 1120029183 43947369#1-AddedOnRampEdge 43947369#1 170601197"/>
    </vehicle>
    <vehicle id="truck103" type="truck_truck" depart="50.69">
        <route edges="277654571 1122897134 41844004 1120029190"/>
    </vehicle>
    <vehicle id="truck106" type="truck_truck" depart="52.17">
        <route edges="277654571 1122897134 1120029191 1139168722 206489379-AddedOnRampEdge 206489379 170605263"/>
    </vehicle>
    <vehicle id="truck107" type="truck_truck" depart="52.66">
        <route edges="70707218 70707218-AddedOffRampEdge"/>
    </vehicle>
    <vehicle id="truck108" type="truck_truck" depart="53.15">
        <route edges="42064236 170605264 170605269 206489382 206489382-AddedOffRampEdge 42064232 1120029186 43947365-AddedOnRampEdge 43947365"/>
    </vehicle>
    <vehicle id="truck109" type="truck_truck" depart="53.64">
        <route edges="1118511056-AddedOffRampEdge 1120029196 1139168722 206489379-AddedOnRampEdge 206489379 170605263"/>
    </vehicle>
    <vehicle id="truck110" type="truck_truck" depart="54.14">
        <route edges="70707218 70707218-AddedOffRampEdge 1120029181 1120029186 43947365-AddedOnRampEdge 43947365"/>
    </vehicle>
    <vehicle id="truck111" type="truck_truck" depart="54.63">
        <route edges="42064236 170605264 170605269 206489382 206489382-AddedOffRampEdge 42064232 1120029186 43947365-AddedOnRampEdge 43947365"/>
    </vehicle>
    <vehicle id="truck113" type="truck_truck" depart="55.61">
        <route edges="42064236 170605264 170605269 206489382 206489382-AddedOffRampEdge 43947390#1 277653336 206489380 43947382 43947368-AddedOnRampEdge 43947368"/>
    </vehicle>
    <vehicle id="truck116" type="truck_truck" depart="57.09">
        <route edges="42064236 170605264 170605269 206489382 206489382-AddedOffRampEdge 42064232 1120029186 43947365-AddedOnRampEdge 43947365"/>
    </vehicle>
    <vehicle id="truck118" type="truck_truck" depart="58.07">
        <route edges="70707218 70707218-AddedOffRampEdge 42064105 42064105-AddedOffRampEdge 406802122 1120029183 43947369#1-AddedOnRampEdge 43947369#1 170601197"/>
    </vehicle>
    <vehicle id="truck119" type="truck_truck" depart="58.56">
        <route edges="42064236 170605264 170605269 206489382 206489382-AddedOffRampEdge 42064232 1120029186 43947365-AddedOnRampEdge 43947365"/>
    </vehicle>
    <vehicle id="truck120" type="truck_truck" depart="59.06">
        <route edges="277654571 170601193 43947365-AddedOnRampEdge 43947365"/>
    </vehicle>
    <vehicle id="truck121" type="truck_truck" depart="59.55">
        <route edges="42064236 170605264 170605269 206489382 206489382-AddedOffRampEdge 43947390#1 277653336 206489380 43947382 43947368-AddedOnRampEdge 43947368"/>
    </vehicle>
    <vehicle id="truck123" type="truck_truck" depart="60.53">
        <route edges="1139168722 206489379-AddedOnRampEdge 206489379 170605263"/>
    </vehicle>
    <vehicle id="truck125" type="truck_truck" depart="61.52">
        <route edges="277654571 170601193 43947365-AddedOnRampEdge 43947365"/>
    </vehicle>
    <vehicle id="truck126" type="truck_truck" depart="62.01">
        <route edges="1118511056 1118511056-AddedOffRampEdge 1120029196 1139168722 206489379-AddedOnRampEdge 206489379 170605263"/>
    </vehicle>
    <vehicle id="truck127" type="truck_truck" depart="62.50">
        <route edges="70707218-AddedOffRampEdge"/>
    </vehicle>
    <vehicle id="truck133" type="truck_truck" depart="65.45">
        <route edges="42064236 170605264 170605269 206489382 206489382-AddedOffRampEdge 43947390#1"/>
    </vehicle>
    <vehicle id="truck140" type="truck_truck" depart="68.90">
        <route edges="660731151 43947369#1-AddedOnRampEdge 43947369#1 170601197"/>
    </vehicle>
    <vehicle id="truck141" type="truck_truck" depart="69.39">
        <route edges="42064236 170605264 170605269 1120029182 1120029183 43947369#1-AddedOnRampEdge 43947369#1 170601197"/>
    </vehicle>
    <vehicle id="truck145" type="truck_truck" depart="71.36">
        <route edges="1118511056 1118511056-AddedOffRampEdge 1122897133 1120029190 1120029189 43947368-AddedOnRampEdge 43947368"/>
    </vehicle>
    <vehicle id="truck146" type="truck_truck" depart="71.85">
        <route edges="42064236 170605264 170605269 1120029182 1120029183 43947369#1-AddedOnRampEdge 43947369#1 170601197"/>
    </vehicle>
    <vehicle id="truck149" type="truck_truck" depart="73.33">
        <route edges="1118511056 1118511056-AddedOffRampEdge 1122897133 1120029190 1120029189 43947368-AddedOnRampEdge 43947368"/>
    </vehicle>
    <vehicle id="truck153" type="truck_truck" depart="75.30">
        <route edges="277654571 1122897134 41844004 1120029190 1120029189 43947368-AddedOnRampEdge 43947368"/>
    </vehicle>
    <vehicle id="truck155" type="truck_truck" depart="76.28">
        <route edges="70707218 70707218-AddedOffRampEdge 42064105 42064105-AddedOffRampEdge 406802122 1120029183 43947369#1-AddedOnRampEdge 43947369#1 170601197"/>
    </vehicle>
    <vehicle id="truck158" type="truck_truck" depart="77.76">
        <route edges="277654571 170601193 43947365-AddedOnRampEdge 43947365"/>
    </vehicle>
    <vehicle id="truck159" type="truck_truck" depart="78.25">
        <route edges="1118511056-AddedOffRampEdge 1122897133 1120029190 1120029189 43947368-AddedOnRampEdge 43947368"/>
    </vehicle>
    <vehicle id="truck160" type="truck_truck" depart="78.74">
        <route edges="70707218 70707218-AddedOffRampEdge 42064105 42064105-AddedOffRampEdge 43947386#1"/>
    </vehicle>
    <vehicle id="truck163" type="truck_truck" depart="80.22">
        <route edges="277654571 1122897134 41844004 1120029190 1120029189 43947368-AddedOnRampEdge 43947368"/>
    </vehicle>
    <vehicle id="truck165" type="truck_truck" depart="81.20">
        <route edges="660731151 43947369#1-AddedOnRampEdge 43947369#1 170601197"/>
    </vehicle>
    <vehicle id="truck168" type="truck_truck" depart="82.68">
        <route edges="1122897133 1120029190 1120029189 43947368-AddedOnRampEdge 43947368"/>
    </vehicle>
    <vehicle id="truck170" type="truck_truck" depart="83.66">
        <route edges="660731151 43947369#1-AddedOnRampEdge 43947369#1 170601197"/>
    </vehicle>
    <vehicle id="truck172" type="truck_truck" depart="84.65">
        <route edges="277654571 1122897134 41844004 1120029190 1120029189 43947368-AddedOnRampEdge 43947368"/>
    </vehicle>
    <vehicle id="truck173" type="truck_truck" depart="85.14">
        <route edges="70707218 70707218-AddedOffRampEdge 42064105 42064105-AddedOffRampEdge 406802122 1120029183 43947369#1-AddedOnRampEdge 43947369#1 170601197"/>
    </vehicle>
    <vehicle id="truck175" type="truck_truck" depart="86.12">
        <route edges="70707218 70707218-AddedOffRampEdge 42064105 42064105-AddedOffRampEdge 406802122"/>
    </vehicle>
    <vehicle id="truck176" type="truck_truck" depart="86.62">
        <route edges="70707218 70707218-AddedOffRampEdge 42064105 42064105-AddedOffRampEdge 406802122 1120029183 43947369#1-AddedOnRampEdge 43947369#1 170601197"/>
    </vehicle>
    <vehicle id="truck177" type="truck_truck" depart="87.11">
        <route edges="70707218 70707218-AddedOffRampEdge 42064105 42064105-AddedOffRampEdge 406802122 1120029183 43947369#1-AddedOnRampEdge 43947369#1 170601197"/>
    </vehicle>
    <vehicle id="truck178" type="truck_truck" depart="87.60">
        <route edges="70707218 70707218-AddedOffRampEdge 42064105 42064105-AddedOffRampEdge 406802122 1120029183 43947369#1-AddedOnRampEdge 43947369#1 170601197"/>
    </vehicle>
    <vehicle id="truck179" type="truck_truck" depart="88.09">
        <route edges="1118511056 1118511056-AddedOffRampEdge 1120029196 1139168722 206489379-AddedOnRampEdge 206489379 170605263"/>
    </vehicle>
    <vehicle id="truck181" type="truck_truck" depart="89.08">
        <route edges="42064236 170605264 170605269 206489382"/>
    </vehicle>
    <vehicle id="truck183" type="truck_truck" depart="90.06">
        <route edges="170605269 206489382 206489382-AddedOffRampEdge 42064232 1120029186 43947365-AddedOnRampEdge 43947365"/>
    </vehicle>
    <vehicle id="truck184" type="truck_truck" depart="90.55">
        <route edges="1118511056 1118511056-AddedOffRampEdge 1122897133 1120029190 1120029189 43947368-AddedOnRampEdge 43947368"/>
    </vehicle>
    <vehicle id="truck185" type="truck_truck" depart="91.05">
        <route edges="42064236 170605264 170605269 206489382 206489382-AddedOffRampEdge 42064232 1120029186 43947365-AddedOnRampEdge 43947365"/>
    </vehicle>
    <vehicle id="truck187" type="truck_truck" depart="92.03">
        <route edges="277654571 1122897134 1120029191"/>
    </vehicle>
    <vehicle id="truck189" type="truck_truck" depart="93.01">
        <route edges="277654571 1122897134 41844004 1120029190 1120029189 43947368-AddedOnRampEdge 43947368"/>
    </vehicle>
    <vehicle id="truck191" type="truck_truck" depart="94.00">
        <route edges="277654571 1122897134 1120029191 1139168722 206489379-AddedOnRampEdge 206489379 170605263"/>
    </vehicle>
    <vehicle id="truck192" type="truck_truck" depart="94.49">
        <route edges="277654571 1122897134 1120029191 1139168722 206489379-AddedOnRampEdge 206489379 170605263"/>
    </vehicle>
    <vehicle id="truck193" type="truck_truck" depart="94.98">
        <route edges="1118511056 1118511056-AddedOffRampEdge 1120029196 1139168722 206489379-AddedOnRampEdge 206489379 170605263"/>
    </vehicle>
    <vehicle id="truck194" type="truck_truck" depart="95.48">
        <route edges="70707218 70707218-AddedOffRampEdge 1120029181 1120029186 43947365-AddedOnRampEdge 43947365"/>
    </vehicle>
    <vehicle id="truck195" type="truck_truck" depart="95.97">
        <route edges="70707218 70707218-AddedOffRampEdge 1120029181 1120029186 43947365-AddedOnRampEdge 43947365"/>
    </vehicle>
    <vehicle id="truck198" type="truck_truck" depart="97.44">
        <route edges="277654571 170601193 43947365-AddedOnRampEdge 43947365"/>
    </vehicle>
    <vehicle id="truck202" type="truck_truck" depart="99.41">
        <route edges="660731151 43947369#1-AddedOnRampEdge 43947369#1 170601197"/>
    </vehicle>
    <vehicle id="truck210" type="truck_truck" depart="103.35">
        <route edges="277654571 170601193 43947365-AddedOnRampEdge 43947365"/>
    </vehicle>
    <vehicle id="truck212" type="truck_truck" depart="104.33">
        <route edges="42064236 170605264 170605269 1120029182 1120029183 43947369#1-AddedOnRampEdge 43947369#1 170601197"/>
    </vehicle>
    <vehicle id="truck215" type="truck_truck" depart="105.81">
        <route edges="1118511056 1118511056-AddedOffRampEdge 1120029196 1139168722 206489379-AddedOnRampEdge 206489379 170605263"/>
    </vehicle>
    <vehicle id="truck216" type="truck_truck" depart="106.30">
        <route edges="1120029183 43947369#1-AddedOnRampEdge"/>
    </vehicle>
    <vehicle id="truck218" type="truck_truck" depart="107.29">
        <route edges="170605264 170605269 206489382 206489382-AddedOffRampEdge 43947390#1 277653336 206489380 43947382 43947368-AddedOnRampEdge 43947368"/>
    </vehicle>
    <vehicle id="truck221" type="truck_truck" depart="108.76">
        <route edges="42064236 170605264 170605269 1120029182 1120029183 43947369#1-AddedOnRampEdge 43947369#1"/>
    </vehicle>
    <vehicle id="truck222" type="truck_truck" depart="109.26">
        <route edges="70707218 70707218-AddedOffRampEdge 1120029181 1120029186 43947365-AddedOnRampEdge 43947365"/>
    </vehicle>
    <vehicle id="truck225" type="truck_truck" depart="110.73">
        <route edges="70707218 70707218-AddedOffRampEdge 1120029181 1120029186 43947365-AddedOnRampEdge 43947365"/>
    </vehicle>
    <vehicle id="truck226" type="truck_truck" depart="111.22">
        <route edges="42064105 42064105-AddedOffRampEdge 406802122 1120029183 43947369#1-AddedOnRampEdge 43947369#1 170601197"/>
    </vehicle>
    <vehicle id="truck227" type="truck_truck" depart="111.72">
        <route edges="170605264 170605269 206489382 206489382-AddedOffRampEdge 42064232 1120029186 43947365-AddedOnRampEdge 43947365"/>
    </vehicle>
    <vehicle id="truck229" type="truck_truck" depart="112.70">
        <route edges="42064236 170605264 170605269 1120029182 1120029183 43947369#1-AddedOnRampEdge 43947369#1 170601197"/>
    </vehicle>
    <vehicle id="truck231" type="truck_truck" depart="113.68">
        <route edges="206489379-AddedOnRampEdge 206489379 170605263"/>
    </vehicle>
    <vehicle id="truck232" type="truck_truck" depart="114.18">
        <route edges="42064236 170605264 170605269 1120029182 1120029183 43947369#1-AddedOnRampEdge 43947369#1 170601197"/>
    </vehicle>
    <vehicle id="truck237" type="truck_truck" depart="116.64">
        <route edges="277654571 1122897134 41844004 1120029190 1120029189 43947368-AddedOnRampEdge 43947368"/>
    </vehicle>
    <vehicle id="truck238" type="truck_truck" depart="117.13">
        <route edges="42064236 170605264 170605269 206489382 206489382-AddedOffRampEdge 42064232 1120029186 43947365-AddedOnRampEdge 43947365"/>
    </vehicle>
    <vehicle id="truck241" type="truck_truck" depart="118.61">
        <route edges="277654571 170601193 43947365-AddedOnRampEdge 43947365"/>
    </vehicle>
    <vehicle id="truck242" type="truck_truck" depart="119.10">
        <route edges="70707218 70707218-AddedOffRampEdge 42064105 42064105-AddedOffRampEdge 406802122 1120029183 43947369#1-AddedOnRampEdge 43947369#1"/>
    </vehicle>
    <vehicle id="truck243" type="truck_truck" depart="119.59">
        <route edges="277654571 170601193 43947365-AddedOnRampEdge 43947365"/>
    </vehicle>
    <vehicle id="truck244" type="truck_truck" depart="120.08">
        <route edges="42064236 170605264 170605269 206489382 206489382-AddedOffRampEdge 42064232 1120029186 43947365-AddedOnRampEdge 43947365"/>
    </vehicle>
    <vehicle id="truck247" type="truck_truck" depart="121.56">
        <route edges="277654571 170601193 43947365-AddedOnRampEdge 43947365"/>
    </vehicle>
    <vehicle id="truck250" type="truck_truck" depart="123.04">
        <route edges="42064236 170605264 170605269 1120029182 1120029183"/>
    </vehicle>
    <vehicle id="truck253" type="truck_truck" depart="124.51">
        <route edges="1118511056 1118511056-AddedOffRampEdge 1120029196 1139168722 206489379-AddedOnRampEdge 206489379 170605263"/>
    </vehicle>
    <vehicle id="truck254" type="truck_truck" depart="125.00">
        <route edges="1118511056 1118511056-AddedOffRampEdge 1120029196 1139168722 206489379-AddedOnRampEdge 206489379 170605263"/>
    </vehicle>
    <vehicle id="truck255" type="truck_truck" depart="125.50">
        <route edges="1120029196 1139168722 206489379-AddedOnRampEdge 206489379 170605263"/>
    </vehicle>
    <vehicle id="truck260" type="truck_truck" depart="127.96">
        <route edges="70707218-AddedOffRampEdge 42064105 42064105-AddedOffRampEdge 43947386#1 206489379-AddedOnRampEdge 206489379 170605263"/>
    </vehicle>
    <vehicle id="truck261" type="truck_truck" depart="128.45">
        <route edges="43947368-AddedOnRampEdge 43947368"/>
    </vehicle>
    <vehicle id="truck263" type="truck_truck" depart="129.43">
        <route edges="70707218 70707218-AddedOffRampEdge 42064105 42064105-AddedOffRampEdge 406802122 1120029183 43947369#1-AddedOnRampEdge 43947369#1 170601197"/>
    </vehicle>
    <vehicle id="truck266" type="truck_truck" depart="130.91">
        <route edges="42064236 170605264 170605269 1120029182 1120029183 43947369#1-AddedOnRampEdge 43947369#1 170601197"/>
    </vehicle>
    <vehicle id="truck269" type="truck_truck" depart="132.39">
        <route edges="660731151 43947369#1-AddedOnRampEdge 43947369#1 170601197"/>
    </vehicle>
    <vehicle id="truck270" type="truck_truck" depart="132.88">
        <route edges="660731151 43947369#1-AddedOnRampEdge"/>
    </vehicle>
    <vehicle id="truck272" type="truck_truck" depart="133.86">
        <route edges="277654571 170601193 43947365-AddedOnRampEdge 43947365"/>
    </vehicle>
    <vehicle id="truck273" type="truck_truck" depart="134.35">
        <route edges="70707218 70707218-AddedOffRampEdge 42064105 42064105-AddedOffRampEdge 43947386#1 206489379-AddedOnRampEdge 206489379 170605263"/>
    </vehicle>
    <vehicle id="truck276" type="truck_truck" depart="135.83">
        <route edges="1118511056 1118511056-AddedOffRampEdge 1122897133 1120029190 1120029189 43947368-AddedOnRampEdge 43947368"/>
    </vehicle>
    <vehicle id="truck277" type="truck_truck" depart="136.32">
        <route edges="70707218 70707218-AddedOffRampEdge 1120029181 1120029186 43947365-AddedOnRampEdge 43947365"/>
    </vehicle>
    <vehicle id="truck280" type="truck_truck" depart="137.80">
        <route edges="277654571 1122897134 1120029191 1139168722 206489379-AddedOnRampEdge 206489379 170605263"/>
    </vehicle>
    <vehicle id="truck284" type="truck_truck" depart="139.77">
        <route edges="42064236 170605264 170605269 206489382 206489382-AddedOffRampEdge 43947390#1 277653336 206489380 43947382 43947368-AddedOnRampEdge 43947368"/>
    </vehicle>
    <vehicle id="truck289" type="truck_truck" depart="142.23">
        <route edges="277654571 170601193 43947365-AddedOnRampEdge 43947365"/>
    </vehicle>
    <vehicle id="truck292" type="truck_truck" depart="143.71">
        <route edges="70707218 70707218-AddedOffRampEdge 42064105 42064105-AddedOffRampEdge 406802122 1120029183 43947369#1-AddedOnRampEdge 43947369#1 170601197"/>
    </vehicle>
    <vehicle id="truck295" type="truck_truck" depart="145.18">
        <route edges="70707218 70707218-AddedOffRampEdge 42064105 42064105-AddedOffRampEdge 406802122 1120029183 43947369#1-AddedOnRampEdge 43947369#1 170601197"/>
    </vehicle>
    <vehicle id="truck297" type="truck_truck" depart="146.17">
        <route edges="277654571 1122897134 41844004 1120029190 1120029189 43947368-AddedOnRampEdge 43947368"/>
    </vehicle>
    <vehicle id="truck298" type="truck_truck" depart="146.66">
        <route edges="660731151 43947369#1-AddedOnRampEdge 43947369#1 170601197"/>
    </vehicle>
    <vehicle id="truck301" type="truck_truck" depart="148.13">
        <route edges="42064232 1120029186 43947365-AddedOnRampEdge"/>
    </vehicle>
    <vehicle id="truck306" type="truck_truck" depart="150.60">
        <route edges="42064236 170605264"/>
    </vehicle>
    <vehicle id="truck309" type="truck_truck" depart="152.07">
        <route edges="660731151 43947369#1-AddedOnRampEdge 43947369#1 170601197"/>
    </vehicle>
    <vehicle id="truck310" type="truck_truck" depart="152.56">
        <route edges="170605264 170605269 1120029182 1120029183 43947369#1-AddedOnRampEdge 43947369#1 170601197"/>
    </vehicle>
    <vehicle id="truck312" type="truck_truck" depart="153.55">
        <route edges="42064236 170605264 170605269 206489382 206489382-AddedOffRampEdge 42064232 1120029186 43947365-AddedOnRampEdge"/>
    </vehicle>
    <vehicle id="truck319" type="truck_truck" depart="156.99">
        <route edges="42064236 170605264 170605269 1120029182 1120029183 43947369#1-AddedOnRampEdge 43947369#1 170601197"/>
    </vehicle>
    <vehicle id="truck320" type="truck_truck" depart="157.48">
        <route edges="70707218 70707218-AddedOffRampEdge 42064105"/>
    </vehicle>
    <vehicle id="truck321" type="truck_truck" depart="157.98">
        <route edges="660731151 43947369#1-AddedOnRampEdge 43947369#1 170601197"/>
    </vehicle>
    <vehicle id="truck322" type="truck_truck" depart="158.47">
        <route edges="70707218 70707218-AddedOffRampEdge 42064105 42064105-AddedOffRampEdge 43947386#1 206489379-AddedOnRampEdge 206489379"/>
    </vehicle>
    <vehicle id="truck331" type="truck_truck" depart="162.90">
        <route edges="70707218-AddedOffRampEdge 42064105 42064105-AddedOffRampEdge 406802122 1120029183 43947369#1-AddedOnRampEdge 43947369#1 170601197"/>
    </vehicle>
    <vehicle id="truck333" type="truck_truck" depart="163.88">
        <route edges="660731151 43947369#1-AddedOnRampEdge 43947369#1 170601197"/>
    </vehicle>
    <vehicle id="truck335" type="truck_truck" depart="164.87">
        <route edges="277654571 1122897134 41844004 1120029190 1120029189 43947368-AddedOnRampEdge 43947368"/>
    </vehicle>
    <vehicle id="truck336" type="truck_truck" depart="165.36">
        <route edges="70707218 70707218-AddedOffRampEdge 42064105 42064105-AddedOffRampEdge 43947386#1 206489379-AddedOnRampEdge 206489379 170605263"/>
    </vehicle>
    <vehicle id="truck337" type="truck_truck" depart="165.85">
        <route edges="42064236 170605264 170605269 206489382 206489382-AddedOffRampEdge 42064232 1120029186 43947365-AddedOnRampEdge 43947365"/>
    </vehicle>
    <vehicle id="truck338" type="truck_truck" depart="166.34">
        <route edges="660731151 43947369#1-AddedOnRampEdge 43947369#1"/>
    </vehicle>
    <vehicle id="truck340" type="truck_truck" depart="167.33">
        <route edges="43947369#1 170601197"/>
    </vehicle>
    <vehicle id="truck342" type="truck_truck" depart="168.31">
        <route edges="1118511056 1118511056-AddedOffRampEdge 1120029196 1139168722 206489379-AddedOnRampEdge 206489379 170605263"/>
    </vehicle>
    <vehicle id="truck346" type="truck_truck" depart="170.28">
        <route edges="43947390#1 277653336 206489380 43947382 43947368-AddedOnRampEdge 43947368"/>
    </vehicle>
    <vehicle id="truck349" type="truck_truck" depart="171.76">