<?xml version="1.0" encoding="UTF-8"?>

<!-- generated on 2024-12-04 18:09:29.764930 by main.py UNKNOWN
<configuration>
    <net-file value="/root/myvenv/nextpj/src/backend/data/scenario_1733335764/osm.net.xml.gz"/>
    <output-trip-file value="/root/myvenv/nextpj/src/backend/data/scenario_1733335764/osm.truck.trips.xml"/>
    <route-file value="/root/myvenv/nextpj/src/backend/data/scenario_1733335764/osm.truck.rou.xml"/>
    <prefix value="truck"/>
    <vehicle-class value="truck"/>
    <fringe-factor value="20.0"/>
    <validate value="True"/>
    <insertion-density value="80.0"/>
</configuration>
-->

<!-- generated on 2024-12-04 18:09:29 by Eclipse SUMO duarouter Version 1.21.0
<duarouterConfiguration xmlns:xsi="http://www.w3.org/2001/XMLSchema-instance" xsi:noNamespaceSchemaLocation="http://sumo.dlr.de/xsd/duarouterConfiguration.xsd">

    <input>
        <net-file value="/root/myvenv/nextpj/src/backend/data/scenario_1733335764/osm.net.xml.gz"/>
        <route-files value="/root/myvenv/nextpj/src/backend/data/scenario_1733335764/osm.truck.trips.xml"/>
    </input>

    <output>
        <output-file value="/root/myvenv/nextpj/src/backend/data/scenario_1733335764/osm.truck.trips.xml.tmp"/>
        <alternatives-output value="NUL"/>
        <write-trips value="true"/>
    </output>

    <time>
        <begin value="0.0"/>
        <end value="3600.0"/>
    </time>

    <report>
        <no-warnings value="true"/>
        <ignore-errors value="true"/>
        <no-step-log value="true"/>
    </report>

</duarouterConfiguration>
-->

<routes xmlns:xsi="http://www.w3.org/2001/XMLSchema-instance" xsi:noNamespaceSchemaLocation="http://sumo.dlr.de/xsd/routes_file.xsd">
    <vType id="truck_truck" vClass="truck"/>
    <trip id="truck0" type="truck_truck" depart="0.00" from="42064236" to="1120029182"/>
    <trip id="truck12" type="truck_truck" depart="5.91" from="70707218" to="170605263"/>
    <trip id="truck13" type="truck_truck" depart="6.40" from="1118511056" to="1139168722"/>
    <trip id="truck14" type="truck_truck" depart="6.89" from="70707218" to="43947365"/>
    <trip id="truck16" type="truck_truck" depart="7.87" from="42064236" to="43947382"/>
    <trip id="truck17" type="truck_truck" depart="8.37" from="277654571" to="41844004"/>
    <trip id="truck27" type="truck_truck" depart="13.29" from="43947365-AddedOnRampEdge" to="43947365"/>
    <trip id="truck30" type="truck_truck" depart="14.76" from="70707218" to="43947365"/>
    <trip id="truck31" type="truck_truck" depart="15.26" from="42064236" to="43947365"/>
    <trip id="truck36" type="truck_truck" depart="17.72" from="70707218" to="170605263"/>
    <trip id="truck38" type="truck_truck" depart="18.70" from="70707218" to="170605263"/>
    <trip id="truck40" type="truck_truck" depart="19.69" from="42064236" to="170601197"/>
    <trip id="truck41" type="truck_truck" depart="20.18" from="42064236" to="43947368"/>
    <trip id="truck44" type="truck_truck" depart="21.65" from="1118511056" to="1120029189"/>
    <trip id="truck47" type="truck_truck" depart="23.13" from="1118511056" to="170605263"/>
    <trip id="truck53" type="truck_truck" depart="26.08" from="1118511056" to="170605263"/>
    <trip id="truck55" type="truck_truck" depart="27.07" from="70707218" to="170601197"/>
    <trip id="truck56" type="truck_truck" depart="27.56" from="42064236" to="170601197"/>
    <trip id="truck58" type="truck_truck" depart="28.54" from="206489382-AddedOffRampEdge" to="43947365"/>
    <trip id="truck59" type="truck_truck" depart="29.04" from="42064236" to="170601197"/>
    <trip id="truck62" type="truck_truck" depart="30.51" from="1118511056" to="170605263"/>
    <trip id="truck63" type="truck_truck" depart="31.00" from="1118511056" to="43947368"/>
    <trip id="truck65" type="truck_truck" depart="31.99" from="277654571" to="1120029190"/>
    <trip id="truck67" type="truck_truck" depart="32.97" from="1118511056" to="206489379"/>
    <trip id="truck69" type="truck_truck" depart="33.96" from="660731151" to="170601197"/>
    <trip id="truck73" type="truck_truck" depart="35.93" from="42064236" to="43947365"/>
    <trip id="truck75" type="truck_truck" depart="36.91" from="70707218-AddedOffRampEdge" to="43947365"/>
    <trip id="truck78" type="truck_truck" depart="38.39" from="277654571" to="43947365"/>
    <trip id="truck81" type="truck_truck" depart="39.86" from="1122897134" to="43947368"/>
    <trip id="truck87" type="truck_truck" depart="42.82" from="660731151" to="170601197"/>
    <trip id="truck88" type="truck_truck" depart="43.31" from="1118511056" to="170605263"/>
    <trip id="truck92" type="truck_truck" depart="45.28" from="277654571" to="170605263"/>
    <trip id="truck93" type="truck_truck" depart="45.77" from="70707218" to="170601197"/>
    <trip id="truck96" type="truck_truck" depart="47.25" from="170605264" to="43947368"/>
    <trip id="truck97" type="truck_truck" depart="47.74" from="277654571" to="43947368"/>
    <trip id="truck101" type="truck_truck" depart="49.71" from="70707218" to="170601197"/>
    <trip id="truck103" type="truck_truck" depart="50.69" from="277654571" to="1120029190"/>
    <trip id="truck106" type="truck_truck" depart="52.17" from="277654571" to="170605263"/>
    <trip id="truck107" type="truck_truck" depart="52.66" from="70707218" to="70707218-AddedOffRampEdge"/>
    <trip id="truck108" type="truck_truck" depart="53.15" from="42064236" to="43947365"/>
    <trip id="truck109" type="truck_truck" depart="53.64" from="1118511056-AddedOffRampEdge" to="170605263"/>
    <trip id="truck110" type="truck_truck" depart="54.14" from="70707218" to="43947365"/>
    <trip id="truck111" type="truck_truck" depart="54.63" from="42064236" to="43947365"/>
    <trip id="truck113" type="truck_truck" depart="55.61" from="42064236" to="43947368"/>
    <trip id="truck116" type="truck_truck" depart="57.09" from="42064236" to="43947365"/>
    <trip id="truck118" type="truck_truck" depart="58.07" from="70707218" to="170601197"/>
    <trip id="truck119" type="truck_truck" depart="58.56" from="42064236" to="43947365"/>
    <trip id="truck120" type="truck_truck" depart="59.06" from="277654571" to="43947365"/>
    <trip id="truck121" type="truck_truck" depart="59.55" from="42064236" to="43947368"/>
    <trip id="truck123" type="truck_truck" depart="60.53" from="1139168722" to="170605263"/>
    <trip id="truck125" type="truck_truck" depart="61.52" from="277654571" to="43947365"/>
    <trip id="truck126" type="truck_truck" depart="62.01" from="1118511056" to="170605263"/>
    <trip id="truck127" type="truck_truck" depart="62.50" from="70707218-AddedOffRampEdge" to="70707218-AddedOffRampEdge"/>
    <trip id="truck133" type="truck_truck" depart="65.45" from="42064236" to="43947390#1"/>
    <trip id="truck140" type="truck_truck" depart="68.90" from="660731151" to="170601197"/>
    <trip id="truck141" type="truck_truck" depart="69.39" from="42064236" to="170601197"/>
    <trip id="truck145" type="truck_truck" depart="71.36" from="1118511056" to="43947368"/>
    <trip id="truck146" type="truck_truck" depart="71.85" from="42064236" to="170601197"/>
    <trip id="truck149" type="truck_truck" depart="73.33" from="1118511056" to="43947368"/>
    <trip id="truck153" type="truck_truck" depart="75.30" from="277654571" to="43947368"/>
    <trip id="truck155" type="truck_truck" depart="76.28" from="70707218" to="170601197"/>
    <trip id="truck158" type="truck_truck" depart="77.76" from="277654571" to="43947365"/>
    <trip id="truck159" type="truck_truck" depart="78.25" from="1118511056-AddedOffRampEdge" to="43947368"/>
    <trip id="truck160" type="truck_truck" depart="78.74" from="70707218" to="43947386#1"/>
    <trip id="truck163" type="truck_truck" depart="80.22" from="277654571" to="43947368"/>
    <trip id="truck165" type="truck_truck" depart="81.20" from="660731151" to="170601197"/>
    <trip id="truck168" type="truck_truck" depart="82.68" from="1122897133" to="43947368"/>
    <trip id="truck170" type="truck_truck" depart="83.66" from="660731151" to="170601197"/>
    <trip id="truck172" type="truck_truck" depart="84.65" from="277654571" to="43947368"/>
    <trip id="truck173" type="truck_truck" depart="85.14" from="70707218" to="170601197"/>
    <trip id="truck175" type="truck_truck" depart="86.12" from="70707218" to="406802122"/>
    <trip id="truck176" type="truck_truck" depart="86.62" from="70707218" to="170601197"/>
    <trip id="truck177" type="truck_truck" depart="87.11" from="70707218" to="170601197"/>
    <trip id="truck178" type="truck_truck" depart="87.60" from="70707218" to="170601197"/>
    <trip id="truck179" type="truck_truck" depart="88.09" from="1118511056" to="170605263"/>
    <trip id="truck181" type="truck_truck" depart="89.08" from="42064236" to="206489382"/>
    <trip id="truck183" type="truck_truck" depart="90.06" from="170605269" to="43947365"/>
    <trip id="truck184" type="truck_truck" depart="90.55" from="1118511056" to="43947368"/>
    <trip id="truck185" type="truck_truck" depart="91.05" from="42064236" to="43947365"/>
    <trip id="truck187" type="truck_truck" depart="92.03" from="277654571" to="1120029191"/>
    <trip id="truck189" type="truck_truck" depart="93.01" from="277654571" to="43947368"/>
    <trip id="truck191" type="truck_truck" depart="94.00" from="277654571" to="170605263"/>
    <trip id="truck192" type="truck_truck" depart="94.49" from="277654571" to="170605263"/>
    <trip id="truck193" type="truck_truck" depart="94.98" from="1118511056" to="170605263"/>
    <trip id="truck194" type="truck_truck" depart="95.48" from="70707218" to="43947365"/>
    <trip id="truck195" type="truck_truck" depart="95.97" from="70707218" to="43947365"/>
    <trip id="truck198" type="truck_truck" depart="97.44" from="277654571" to="43947365"/>
    <trip id="truck202" type="truck_truck" depart="99.41" from="660731151" to="170601197"/>
    <trip id="truck210" type="truck_truck" depart="103.35" from="277654571" to="43947365"/>
    <trip id="truck212" type="truck_truck" depart="104.33" from="42064236" to="170601197"/>
    <trip id="truck215" type="truck_truck" depart="105.81" from="1118511056" to="170605263"/>
    <trip id="truck216" type="truck_truck" depart="106.30" from="1120029183" to="43947369#1-AddedOnRampEdge"/>
    <trip id="truck218" type="truck_truck" depart="107.29" from="170605264" to="43947368"/>
    <trip id="truck221" type="truck_truck" depart="108.76" from="42064236" to="43947369#1"/>
    <trip id="truck222" type="truck_truck" depart="109.26" from="70707218" to="43947365"/>
    <trip id="truck225" type="truck_truck" depart="110.73" from="70707218" to="43947365"/>
    <trip id="truck226" type="truck_truck" depart="111.22" from="42064105" to="170601197"/>
    <trip id="truck227" type="truck_truck" depart="111.72" from="170605264" to="43947365"/>
    <trip id="truck229" type="truck_truck" depart="112.70" from="42064236" to="170601197"/>
    <trip id="truck231" type="truck_truck" depart="113.68" from="206489379-AddedOnRampEdge" to="170605263"/>
    <trip id="truck232" type="truck_truck" depart="114.18" from="42064236" to="170601197"/>
    <trip id="truck237" type="truck_truck" depart="116.64" from="277654571" to="43947368"/>
    <trip id="truck238" type="truck_truck" depart="117.13" from="42064236" to="43947365"/>
    <trip id="truck241" type="truck_truck" depart="118.61" from="277654571" to="43947365"/>
    <trip id="truck242" type="truck_truck" depart="119.10" from="70707218" to="43947369#1"/>
    <trip id="truck243" type="truck_truck" depart="119.59" from="277654571" to="43947365"/>
    <trip id="truck244" type="truck_truck" depart="120.08" from="42064236" to="43947365"/>
    <trip id="truck247" type="truck_truck" depart="121.56" from="277654571" to="43947365"/>
    <trip id="truck250" type="truck_truck" depart="123.04" from="42064236" to="1120029183"/>
    <trip id="truck253" type="truck_truck" depart="124.51" from="1118511056" to="170605263"/>
    <trip id="truck254" type="truck_truck" depart="125.00" from="1118511056" to="170605263"/>
    <trip id="truck255" type="truck_truck" depart="125.50" from="1120029196" to="170605263"/>
    <trip id="truck260" type="truck_truck" depart="127.96" from="70707218-AddedOffRampEdge" to="170605263"/>
    <trip id="truck261" type="truck_truck" depart="128.45" from="43947368-AddedOnRampEdge" to="43947368"/>
    <trip id="truck263" type="truck_truck" depart="129.43" from="70707218" to="170601197"/>
    <trip id="truck266" type="truck_truck" depart="130.91" from="42064236" to="170601197"/>
    <trip id="truck269" type="truck_truck" depart="132.39" from="660731151" to="170601197"/>
    <trip id="truck270" type="truck_truck" depart="132.88" from="660731151" to="43947369#1-AddedOnRampEdge"/>
    <trip id="truck272" type="truck_truck" depart="133.86" from="277654571" to="43947365"/>
    <trip id="truck273" type="truck_truck" depart="134.35" from="70707218" to="170605263"/>
    <trip id="truck276" type="truck_truck" depart="135.83" from="1118511056" to="43947368"/>
    <trip id="truck277" type="truck_truck" depart="136.32" from="70707218" to="43947365"/>
    <trip id="truck280" type="truck_truck" depart="137.80" from="277654571" to="170605263"/>
    <trip id="truck284" type="truck_truck" depart="139.77" from="42064236" to="43947368"/>
    <trip id="truck289" type="truck_truck" depart="142.23" from="277654571" to="43947365"/>
    <trip id="truck292" type="truck_truck" depart="143.71" from="70707218" to="170601197"/>
    <trip id="truck295" type="truck_truck" depart="145.18" from="70707218" to="170601197"/>
    <trip id="truck297" type="truck_truck" depart="146.17" from="277654571" to="43947368"/>
    <trip id="truck298" type="truck_truck" depart="146.66" from="660731151" to="170601197"/>
    <trip id="truck301" type="truck_truck" depart="148.13" from="42064232" to="43947365-AddedOnRampEdge"/>
    <trip id="truck306" type="truck_truck" depart="150.60" from="42064236" to="170605264"/>
    <trip id="truck309" type="truck_truck" depart="152.07" from="660731151" to="170601197"/>
    <trip id="truck310" type="truck_truck" depart="152.56" from="170605264" to="170601197"/>
    <trip id="truck312" type="truck_truck" depart="153.55" from="42064236" to="43947365-AddedOnRampEdge"/>
    <trip id="truck319" type="truck_truck" depart="156.99" from="42064236" to="170601197"/>
    <trip id="truck320" type="truck_truck" depart="157.48" from="70707218" to="42064105"/>
    <trip id="truck321" type="truck_truck" depart="157.98" from="660731151" to="170601197"/>
    <trip id="truck322" type="truck_truck" depart="158.47" from="70707218" to="206489379"/>
    <trip id="truck331" type="truck_truck" depart="162.90" from="70707218-AddedOffRampEdge" to="170601197"/>
    <trip id="truck333" type="truck_truck" depart="163.88" from="660731151" to="170601197"/>
    <trip id="truck335" type="truck_truck" depart="164.87" from="277654571" to="43947368"/>
    <trip id="truck336" type="truck_truck" depart="165.36" from="70707218" to="170605263"/>
    <trip id="truck337" type="truck_truck" depart="165.85" from="42064236" to="43947365"/>
    <trip id="truck338" type="truck_truck" depart="166.34" from="660731151" to="43947369#1"/>
    <trip id="truck340" type="truck_truck" depart="167.33" from="43947369#1" to="170601197"/>
    <trip id="truck342" type="truck_truck" depart="168.31" from="1118511056" to="170605263"/>
    <trip id="truck346" type="truck_truck" depart="170.28" from="43947390#1" to="43947368"/>
    <trip id="truck349" type="truck_truck" depart="171.76" from="277654571" to="41844004"/>
    <trip id="truck358" type="truck_truck" depart="176.19" from="1118511056" to="170605263"/>
    <trip id="truck362" type="truck_truck" depart="178.15" from="70707218" to="70707218-AddedOffRampEdge"/>
    <trip id="truck366" type="truck_truck" depart="180.12" from="70707218" to="170601197"/>
    <trip id="truck367" type="truck_truck" depart="180.62" from="42064236" to="43947365"/>
    <trip id="truck369" type="truck_truck" depart="181.60" from="277654571" to="170605263"/>
    <trip id="truck371" type="truck_truck" depart="182.58" from="277654571" to="43947365"/>
    <trip id="truck372" type="truck_truck" depart="183.08" from="206489382" to="43947368-AddedOnRampEdge"/>
    <trip id="truck374" type="truck_truck" depart="184.06" from="277654571" to="170605263"/>
    <trip id="truck377" type="truck_truck" depart="185.54" from="70707218" to="43947365"/>
    <trip id="truck381" type="truck_truck" depart="187.51" from="660731151" to="170601197"/>
    <trip id="truck382" type="truck_truck" depart="188.00" from="42064236" to="43947368"/>
    <trip id="truck383" type="truck_truck" depart="188.49" from="277654571" to="43947365"/>
    <trip id="truck385" type="truck_truck" depart="189.47" from="42064236" to="170601197"/>
    <trip id="truck389" type="truck_truck" depart="191.44" from="406802122" to="170601197"/>
    <trip id="truck393" type="truck_truck" depart="193.41" from="70707218" to="170601197"/>
    <trip id="truck397" type="truck_truck" depart="195.38" from="206489380" to="43947368"/>
    <trip id="truck398" type="truck_truck" depart="195.87" from="277654571" to="43947368"/>
    <trip id="truck399" type="truck_truck" depart="196.36" from="42064236" to="43947368"/>
    <trip id="truck407" type="truck_truck" depart="200.30" from="42064236" to="170601197"/>
    <trip id="truck412" type="truck_truck" depart="202.76" from="70707218" to="206489379-AddedOnRampEdge"/>
    <trip id="truck414" type="truck_truck" depart="203.75" from="42064236" to="43947368"/>
    <trip id="truck415" type="truck_truck" depart="204.24" from="70707218" to="170605263"/>
    <trip id="truck420" type="truck_truck" depart="206.70" from="277654571" to="43947365"/>
    <trip id="truck421" type="truck_truck" depart="207.19" from="43947368-AddedOnRampEdge" to="43947368"/>
    <trip id="truck423" type="truck_truck" depart="208.18" from="277654571" to="170605263"/>
    <trip id="truck425" type="truck_truck" depart="209.16" from="70707218" to="1120029186"/>
    <trip id="truck427" type="truck_truck" depart="210.14" from="70707218" to="70707218-AddedOffRampEdge"/>
    <trip id="truck430" type="truck_truck" depart="211.62" from="70707218" to="170605263"/>
    <trip id="truck431" type="truck_truck" depart="212.11" from="43947390#1" to="43947368"/>
    <trip id="truck432" type="truck_truck" depart="212.60" from="1118511056" to="43947368"/>
    <trip id="truck435" type="truck_truck" depart="214.08" from="42064236" to="43947368"/>
    <trip id="truck437" type="truck_truck" depart="215.07" from="70707218" to="43947365"/>
    <trip id="truck439" type="truck_truck" depart="216.05" from="1118511056" to="170605263"/>
    <trip id="truck440" type="truck_truck" depart="216.54" from="170605269" to="170601197"/>
    <trip id="truck441" type="truck_truck" depart="217.03" from="1118511056" to="43947368"/>
    <trip id="truck442" type="truck_truck" depart="217.53" from="70707218" to="43947365"/>
    <trip id="truck444" type="truck_truck" depart="218.51" from="277654571" to="43947365"/>
    <trip id="truck446" type="truck_truck" depart="219.49" from="170605264" to="43947368"/>
    <trip id="truck448" type="truck_truck" depart="220.48" from="42064105-AddedOffRampEdge" to="170601197"/>
    <trip id="truck449" type="truck_truck" depart="220.97" from="42064236" to="42064232"/>
    <trip id="truck450" type="truck_truck" depart="221.46" from="70707218-AddedOffRampEdge" to="170605263"/>
    <trip id="truck451" type="truck_truck" depart="221.96" from="70707218" to="43947365"/>
    <trip id="truck455" type="truck_truck" depart="223.92" from="42064236" to="43947368"/>
    <trip id="truck456" type="truck_truck" depart="224.42" from="206489382" to="43947368"/>
    <trip id="truck458" type="truck_truck" depart="225.40" from="42064236" to="43947365"/>
    <trip id="truck461" type="truck_truck" depart="226.88" from="42064236" to="43947368"/>
    <trip id="truck463" type="truck_truck" depart="227.86" from="277654571" to="43947365"/>
    <trip id="truck465" type="truck_truck" depart="228.85" from="206489382-AddedOffRampEdge" to="43947365"/>
    <trip id="truck466" type="truck_truck" depart="229.34" from="1120029183" to="170601197"/>
    <trip id="truck467" type="truck_truck" depart="229.83" from="42064236" to="43947382"/>
    <trip id="truck468" type="truck_truck" depart="230.32" from="42064236" to="43947368"/>
    <trip id="truck469" type="truck_truck" depart="230.81" from="660731151" to="170601197"/>
    <trip id="truck473" type="truck_truck" depart="232.78" from="70707218" to="170601197"/>
    <trip id="truck477" type="truck_truck" depart="234.75" from="277654571" to="43947368"/>
    <trip id="truck479" type="truck_truck" depart="235.74" from="277654571" to="43947365"/>
    <trip id="truck483" type="truck_truck" depart="237.70" from="1118511056" to="43947368"/>
    <trip id="truck484" type="truck_truck" depart="238.20" from="42064236" to="43947368"/>
    <trip id="truck488" type="truck_truck" depart="240.16" from="1118511056" to="43947368-AddedOnRampEdge"/>
    <trip id="truck490" type="truck_truck" depart="241.15" from="1118511056" to="43947368"/>
    <trip id="truck491" type="truck_truck" depart="241.64" from="1118511056" to="170605263"/>
    <trip id="truck493" type="truck_truck" depart="242.63" from="70707218" to="170605263"/>
    <trip id="truck494" type="truck_truck" depart="243.12" from="660731151" to="170601197"/>
    <trip id="truck495" type="truck_truck" depart="243.61" from="277654571" to="1139168722"/>
    <trip id="truck497" type="truck_truck" depart="244.59" from="70707218" to="1120029183"/>
    <trip id="truck498" type="truck_truck" depart="245.09" from="277654571" to="170605263"/>
    <trip id="truck502" type="truck_truck" depart="247.05" from="277654571" to="170605263"/>
    <trip id="truck504" type="truck_truck" depart="248.04" from="70707218" to="170605263"/>
    <trip id="truck506" type="truck_truck" depart="249.02" from="42064236" to="1120029182"/>
    <trip id="truck507" type="truck_truck" depart="249.52" from="660731151" to="170601197"/>
    <trip id="truck509" type="truck_truck" depart="250.50" from="1118511056" to="43947368"/>
    <trip id="truck511" type="truck_truck" depart="251.48" from="70707218" to="170605263"/>
    <trip id="truck512" type="truck_truck" depart="251.98" from="1118511056" to="43947368"/>
    <trip id="truck513" type="truck_truck" depart="252.47" from="1118511056" to="43947368"/>
    <trip id="truck515" type="truck_truck" depart="253.45" from="170605264" to="170601197"/>
    <trip id="truck517" type="truck_truck" depart="254.44" from="1118511056" to="43947368"/>
    <trip id="truck518" type="truck_truck" depart="254.93" from="1139168722" to="170605263"/>
    <trip id="truck524" type="truck_truck" depart="257.88" from="70707218" to="1120029186"/>
    <trip id="truck528" type="truck_truck" depart="259.85" from="42064105-AddedOffRampEdge" to="170605263"/>
    <trip id="truck529" type="truck_truck" depart="260.34" from="43947386#1" to="206489379"/>
    <trip id="truck538" type="truck_truck" depart="264.77" from="43947368-AddedOnRampEdge" to="43947368"/>
    <trip id="truck539" type="truck_truck" depart="265.26" from="660731151" to="170601197"/>
    <trip id="truck541" type="truck_truck" depart="266.25" from="277654571" to="170605263"/>
    <trip id="truck542" type="truck_truck" depart="266.74" from="277654571" to="1122897134"/>
    <trip id="truck543" type="truck_truck" depart="267.23" from="277654571" to="43947365"/>
    <trip id="truck551" type="truck_truck" depart="271.17" from="277654571" to="43947365"/>
    <trip id="truck555" type="truck_truck" depart="273.14" from="42064236" to="170601197"/>
    <trip id="truck556" type="truck_truck" depart="273.63" from="43947369#1" to="170601197"/>
    <trip id="truck557" type="truck_truck" depart="274.12" from="1118511056" to="43947368"/>
    <trip id="truck558" type="truck_truck" depart="274.61" from="277654571" to="43947365-AddedOnRampEdge"/>
    <trip id="truck559" type="truck_truck" depart="275.11" from="42064236" to="43947368"/>
    <trip id="truck560" type="truck_truck" depart="275.60" from="70707218" to="43947386#1"/>
    <trip id="truck567" type="truck_truck" depart="279.04" from="70707218" to="42064105-AddedOffRampEdge"/>
    <trip id="truck569" type="truck_truck" depart="280.03" from="42064236" to="1120029183"/>
    <trip id="truck570" type="truck_truck" depart="280.52" from="660731151" to="170601197"/>
    <trip id="truck571" type="truck_truck" depart="281.01" from="277654571" to="170605263"/>
    <trip id="truck572" type="truck_truck" depart="281.50" from="277654571" to="43947365"/>
    <trip id="truck574" type="truck_truck" depart="282.49" from="1118511056" to="1120029189"/>
    <trip id="truck575" type="truck_truck" depart="282.98" from="1120029181" to="43947365"/>
    <trip id="truck583" type="truck_truck" depart="286.92" from="277654571" to="43947365"/>
    <trip id="truck584" type="truck_truck" depart="287.41" from="1118511056" to="170605263"/>
    <trip id="truck591" type="truck_truck" depart="290.86" from="1118511056" to="43947368"/>
    <trip id="truck594" type="truck_truck" depart="292.33" from="42064236" to="42064232"/>
    <trip id="truck597" type="truck_truck" depart="293.81" from="277654571" to="43947368"/>
    <trip id="truck598" type="truck_truck" depart="294.30" from="42064236" to="43947368"/>
    <trip id="truck600" type="truck_truck" depart="295.28" from="70707218" to="170601197"/>
    <trip id="truck601" type="truck_truck" depart="295.78" from="42064236" to="206489382-AddedOffRampEdge"/>
    <trip id="truck602" type="truck_truck" depart="296.27" from="277654571" to="170605263"/>
    <trip id="truck603" type="truck_truck" depart="296.76" from="277654571" to="170605263"/>
    <trip id="truck606" type="truck_truck" depart="298.24" from="70707218" to="170605263"/>
    <trip id="truck608" type="truck_truck" depart="299.22" from="660731151" to="170601197"/>
    <trip id="truck610" type="truck_truck" depart="300.21" from="42064236" to="43947365-AddedOnRampEdge"/>
    <trip id="truck614" type="truck_truck" depart="302.17" from="277654571" to="43947368"/>
    <trip id="truck615" type="truck_truck" depart="302.67" from="42064236" to="43947365"/>
    <trip id="truck616" type="truck_truck" depart="303.16" from="42064236" to="43947368"/>
    <trip id="truck617" type="truck_truck" depart="303.65" from="42064236" to="170601197"/>
    <trip id="truck618" type="truck_truck" depart="304.14" from="1118511056" to="170605263"/>
    <trip id="truck621" type="truck_truck" depart="305.62" from="277654571" to="170605263"/>
    <trip id="truck622" type="truck_truck" depart="306.11" from="1118511056" to="43947368"/>
    <trip id="truck623" type="truck_truck" depart="306.60" from="1118511056" to="43947368"/>
    <trip id="truck624" type="truck_truck" depart="307.10" from="70707218" to="43947365"/>
    <trip id="truck626" type="truck_truck" depart="308.08" from="42064236" to="43947368"/>
    <trip id="truck627" type="truck_truck" depart="308.57" from="70707218" to="170605263"/>
    <trip id="truck631" type="truck_truck" depart="310.54" from="1118511056" to="43947368"/>
    <trip id="truck632" type="truck_truck" depart="311.03" from="277654571" to="43947365"/>
    <trip id="truck633" type="truck_truck" depart="311.53" from="42064236" to="170601197"/>
    <trip id="truck638" type="truck_truck" depart="313.99" from="277654571" to="43947365"/>
    <trip id="truck644" type="truck_truck" depart="316.94" from="277654571" to="43947365"/>
    <trip id="truck645" type="truck_truck" depart="317.43" from="1118511056" to="170605263"/>
    <trip id="truck646" type="truck_truck" depart="317.92" from="70707218" to="43947365"/>
    <trip id="truck647" type="truck_truck" depart="318.41" from="277654571" to="43947365"/>
    <trip id="truck648" type="truck_truck" depart="318.91" from="70707218" to="170605263"/>
    <trip id="truck649" type="truck_truck" depart="319.40" from="277654571" to="43947368"/>
    <trip id="truck654" type="truck_truck" depart="321.86" from="277654571" to="170605263"/>
    <trip id="truck656" type="truck_truck" depart="322.84" from="70707218" to="206489379"/>
    <trip id="truck658" type="truck_truck" depart="323.83" from="1118511056" to="43947368"/>
    <trip id="truck659" type="truck_truck" depart="324.32" from="1118511056" to="43947368"/>
    <trip id="truck661" type="truck_truck" depart="325.30" from="1118511056" to="170605263"/>
    <trip id="truck662" type="truck_truck" depart="325.80" from="660731151" to="170601197"/>
    <trip id="truck665" type="truck_truck" depart="327.27" from="660731151" to="170601197"/>
    <trip id="truck666" type="truck_truck" depart="327.77" from="277654571" to="170605263"/>
    <trip id="truck674" type="truck_truck" depart="331.70" from="406802122" to="170601197"/>
    <trip id="truck677" type="truck_truck" depart="333.18" from="660731151" to="170601197"/>
    <trip id="truck678" type="truck_truck" depart="333.67" from="170605264" to="43947365"/>
    <trip id="truck679" type="truck_truck" depart="334.16" from="70707218" to="42064105"/>
    <trip id="truck680" type="truck_truck" depart="334.66" from="1118511056" to="43947368"/>
    <trip id="truck681" type="truck_truck" depart="335.15" from="70707218" to="170601197"/>
    <trip id="truck682" type="truck_truck" depart="335.64" from="660731151" to="170601197"/>
    <trip id="truck683" type="truck_truck" depart="336.13" from="70707218" to="170601197"/>
    <trip id="truck684" type="truck_truck" depart="336.62" from="277654571" to="43947368-AddedOnRampEdge"/>
    <trip id="truck691" type="truck_truck" depart="340.07" from="43947368-AddedOnRampEdge" to="43947368"/>
    <trip id="truck701" type="truck_truck" depart="344.99" from="277654571" to="43947368"/>
    <trip id="truck703" type="truck_truck" depart="345.97" from="70707218" to="43947365"/>
    <trip id="truck706" type="truck_truck" depart="347.45" from="277654571" to="43947365"/>