<?xml version="1.0" encoding="UTF-8"?>

<!-- generated on 2024-12-04 18:09:30.068909 by main.py UNKNOWN
<configuration>
    <net-file value="/root/myvenv/nextpj/src/backend/data/scenario_1733335764/osm.net.xml.gz"/>
    <output-trip-file value="/root/myvenv/nextpj/src/backend/data/scenario_1733335764/osm.bus.trips.xml"/>
    <route-file value="/root/myvenv/nextpj/src/backend/data/scenario_1733335764/osm.bus.rou.xml"/>
    <prefix value="bus"/>
    <vehicle-class value="bus"/>
    <fringe-factor value="17.0"/>
    <validate value="True"/>
    <insertion-density value="90.0"/>
</configuration>
-->

<!-- generated on 2024-12-04 18:09:29 by Eclipse SUMO duarouter Version 1.21.0
<duarouterConfiguration xmlns:xsi="http://www.w3.org/2001/XMLSchema-instance" xsi:noNamespaceSchemaLocation="http://sumo.dlr.de/xsd/duarouterConfiguration.xsd">

    <input>
        <net-file value="/root/myvenv/nextpj/src/backend/data/scenario_1733335764/osm.net.xml.gz"/>
        <route-files value="/root/myvenv/nextpj/src/backend/data/scenario_1733335764/osm.bus.trips.xml"/>
    </input>

    <output>
        <output-file value="/root/myvenv/nextpj/src/backend/data/scenario_1733335764/osm.bus.rou.xml"/>
        <alternatives-output value="NUL"/>
    </output>

    <time>
        <begin value="0.0"/>
        <end value="3600.0"/>
    </time>

    <report>
        <no-warnings value="true"/>
        <ignore-errors value="true"/>
        <no-step-log value="true"/>
    </report>

</duarouterConfiguration>
-->

<routes xmlns:xsi="http://www.w3.org/2001/XMLSchema-instance" xsi:noNamespaceSchemaLocation="http://sumo.dlr.de/xsd/routes_file.xsd">
    <vType id="bus_bus" vClass="bus"/>
    <vehicle id="bus0" type="bus_bus" depart="0.00">
        <route edges="42064236 170605264 170605269 1120029182"/>
    </vehicle>
    <vehicle id="bus12" type="bus_bus" depart="5.25">
        <route edges="70707218 70707218-AddedOffRampEdge 42064105 42064105-AddedOffRampEdge 43947386#1 206489379-AddedOnRampEdge 206489379 170605263"/>
    </vehicle>
    <vehicle id="bus13" type="bus_bus" depart="5.69">
        <route edges="1118511056 1118511056-AddedOffRampEdge 1122897133"/>
    </vehicle>
    <vehicle id="bus17" type="bus_bus" depart="7.44">
        <route edges="277654571 1122897134 41844004"/>
    </vehicle>
    <vehicle id="bus19" type="bus_bus" depart="8.31">
        <route edges="70707218 70707218-AddedOffRampEdge 42064105 42064105-AddedOffRampEdge"/>
    </vehicle>
    <vehicle id="bus26" type="bus_bus" depart="11.37">
        <route edges="170605269 206489382 206489382-AddedOffRampEdge 43947390#1 277653336 206489380 43947382 43947368-AddedOnRampEdge"/>
    </vehicle>
    <vehicle id="bus27" type="bus_bus" depart="11.81">
        <route edges="43947365-AddedOnRampEdge 43947365"/>
    </vehicle>
    <vehicle id="bus30" type="bus_bus" depart="13.12">
        <route edges="70707218 70707218-AddedOffRampEdge 1120029181 1120029186 43947365-AddedOnRampEdge 43947365"/>
    </vehicle>
    <vehicle id="bus31" type="bus_bus" depart="13.56">
        <route edges="42064236 170605264 170605269 206489382 206489382-AddedOffRampEdge 42064232 1120029186 43947365-AddedOnRampEdge 43947365"/>
    </vehicle>
    <vehicle id="bus36" type="bus_bus" depart="15.75">
        <route edges="70707218 70707218-AddedOffRampEdge 42064105 42064105-AddedOffRampEdge 43947386#1 206489379-AddedOnRampEdge 206489379 170605263"/>
    </vehicle>
    <vehicle id="bus38" type="bus_bus" depart="16.62">
        <route edges="70707218 70707218-AddedOffRampEdge 42064105 42064105-AddedOffRampEdge 43947386#1 206489379-AddedOnRampEdge 206489379 170605263"/>
    </vehicle>
    <vehicle id="bus39" type="bus_bus" depart="17.06">
        <route edges="170605269 1120029182 1120029183 43947369#1-AddedOnRampEdge 43947369#1 170601197"/>
    </vehicle>
    <vehicle id="bus40" type="bus_bus" depart="17.50">
        <route edges="42064236 170605264 170605269 1120029182 1120029183 43947369#1-AddedOnRampEdge 43947369#1 170601197"/>
    </vehicle>
    <vehicle id="bus41" type="bus_bus" depart="17.94">
        <route edges="42064236 170605264 170605269 206489382 206489382-AddedOffRampEdge 43947390#1 277653336 206489380 43947382 43947368-AddedOnRampEdge 43947368"/>
    </vehicle>
    <vehicle id="bus47" type="bus_bus" depart="20.56">
        <route edges="1118511056 1118511056-AddedOffRampEdge 1120029196 1139168722 206489379-AddedOnRampEdge 206489379 170605263"/>
    </vehicle>
    <vehicle id="bus52" type="bus_bus" depart="22.75">
        <route edges="170605269 206489382 206489382-AddedOffRampEdge 42064232 1120029186 43947365-AddedOnRampEdge 43947365"/>
    </vehicle>
    <vehicle id="bus53" type="bus_bus" depart="23.19">
        <route edges="1118511056 1118511056-AddedOffRampEdge 1120029196 1139168722 206489379-AddedOnRampEdge 206489379 170605263"/>
    </vehicle>
    <vehicle id="bus55" type="bus_bus" depart="24.06">
        <route edges="70707218 70707218-AddedOffRampEdge 42064105 42064105-AddedOffRampEdge 406802122 1120029183 43947369#1-AddedOnRampEdge 43947369#1 170601197"/>
    </vehicle>
    <vehicle id="bus58" type="bus_bus" depart="25.37">
        <route edges="206489382 206489382-AddedOffRampEdge 42064232 1120029186 43947365-AddedOnRampEdge 43947365"/>
    </vehicle>
    <vehicle id="bus59" type="bus_bus" depart="25.81">
        <route edges="42064236 170605264 170605269 1120029182 1120029183 43947369#1-AddedOnRampEdge 43947369#1 170601197"/>
    </vehicle>
    <vehicle id="bus62" type="bus_bus" depart="27.12">
        <route edges="1118511056 1118511056-AddedOffRampEdge 1120029196 1139168722 206489379-AddedOnRampEdge 206489379 170605263"/>
    </vehicle>
    <vehicle id="bus63" type="bus_bus" depart="27.56">
        <route edges="1118511056 1118511056-AddedOffRampEdge 1122897133 1120029190 1120029189 43947368-AddedOnRampEdge 43947368"/>
    </vehicle>
    <vehicle id="bus66" type="bus_bus" depart="28.87">
        <route edges="70707218 70707218-AddedOffRampEdge 42064105 42064105-AddedOffRampEdge 406802122 1120029183 43947369#1-AddedOnRampEdge 43947369#1"/>
    </vehicle>
    <vehicle id="bus67" type="bus_bus" depart="29.31">
        <route edges="1118511056 1118511056-AddedOffRampEdge 1120029196 1139168722 206489379-AddedOnRampEdge 206489379"/>
    </vehicle>
    <vehicle id="bus69" type="bus_bus" depart="30.18">
        <route edges="660731151 43947369#1-AddedOnRampEdge 43947369#1 170601197"/>
    </vehicle>
    <vehicle id="bus70" type="bus_bus" depart="30.62">
        <route edges="41844004"/>
    </vehicle>
    <vehicle id="bus71" type="bus_bus" depart="31.06">
        <route edges="170605269 206489382 206489382-AddedOffRampEdge 43947390#1 277653336 206489380 43947382 43947368-AddedOnRampEdge 43947368"/>
    </vehicle>
    <vehicle id="bus73" type="bus_bus" depart="31.93">
        <route edges="42064236 170605264 170605269 206489382 206489382-AddedOffRampEdge 42064232 1120029186 43947365-AddedOnRampEdge 43947365"/>
    </vehicle>
    <vehicle id="bus75" type="bus_bus" depart="32.81">
        <route edges="70707218-AddedOffRampEdge 1120029181 1120029186 43947365-AddedOnRampEdge 43947365"/>
    </vehicle>
    <vehicle id="bus78" type="bus_bus" depart="34.12">
        <route edges="277654571 170601193 43947365-AddedOnRampEdge 43947365"/>
    </vehicle>
    <vehicle id="bus81" type="bus_bus" depart="35.43">
        <route edges="1122897134 41844004 1120029190 1120029189 43947368-AddedOnRampEdge 43947368"/>
    </vehicle>
    <vehicle id="bus85" type="bus_bus" depart="37.18">
        <route edges="70707218 70707218-AddedOffRampEdge 42064105 42064105-AddedOffRampEdge"/>
    </vehicle>
    <vehicle id="bus86" type="bus_bus" depart="37.62">
        <route edges="41844004 1120029190 1120029189 43947368-AddedOnRampEdge 43947368"/>
    </vehicle>
    <vehicle id="bus87" type="bus_bus" depart="38.06">
        <route edges="660731151 43947369#1-AddedOnRampEdge 43947369#1 170601197"/>
    </vehicle>
    <vehicle id="bus88" type="bus_bus" depart="38.50">
        <route edges="1118511056 1118511056-AddedOffRampEdge 1120029196 1139168722 206489379-AddedOnRampEdge 206489379 170605263"/>
    </vehicle>
    <vehicle id="bus92" type="bus_bus" depart="40.25">
        <route edges="277654571 1122897134 1120029191 1139168722 206489379-AddedOnRampEdge 206489379 170605263"/>
    </vehicle>
    <vehicle id="bus93" type="bus_bus" depart="40.68">
        <route edges="70707218 70707218-AddedOffRampEdge 42064105 42064105-AddedOffRampEdge 406802122 1120029183 43947369#1-AddedOnRampEdge 43947369#1 170601197"/>
    </vehicle>
    <vehicle id="bus97" type="bus_bus" depart="42.43">
        <route edges="277654571 1122897134 41844004 1120029190 1120029189 43947368-AddedOnRampEdge 43947368"/>
    </vehicle>
    <vehicle id="bus101" type="bus_bus" depart="44.18">
        <route edges="660731151 43947369#1-AddedOnRampEdge 43947369#1 170601197"/>
    </vehicle>
    <vehicle id="bus102" type="bus_bus" depart="44.62">
        <route edges="42064105 42064105-AddedOffRampEdge 406802122 1120029183 43947369#1-AddedOnRampEdge 43947369#1 170601197"/>
    </vehicle>
    <vehicle id="bus103" type="bus_bus" depart="45.06">
        <route edges="277654571 1122897134 41844004 1120029190 1120029189"/>
    </vehicle>
    <vehicle id="bus105" type="bus_bus" depart="45.93">
        <route edges="170605269 206489382 206489382-AddedOffRampEdge 43947390#1 277653336 206489380 43947382 43947368-AddedOnRampEdge 43947368"/>
    </vehicle>
    <vehicle id="bus106" type="bus_bus" depart="46.37">
        <route edges="277654571 1122897134 1120029191 1139168722 206489379-AddedOnRampEdge 206489379 170605263"/>
    </vehicle>
    <vehicle id="bus107" type="bus_bus" depart="46.81">
        <route edges="70707218 70707218-AddedOffRampEdge"/>
    </vehicle>
    <vehicle id="bus108" type="bus_bus" depart="47.25">
        <route edges="42064236 170605264 170605269 206489382 206489382-AddedOffRampEdge 42064232 1120029186 43947365-AddedOnRampEdge 43947365"/>
    </vehicle>
    <vehicle id="bus111" type="bus_bus" depart="48.56">
        <route edges="42064236 170605264 170605269 206489382 206489382-AddedOffRampEdge 42064232 1120029186 43947365-AddedOnRampEdge 43947365"/>
    </vehicle>
    <vehicle id="bus116" type="bus_bus" depart="50.75">
        <route edges="42064236 170605264 170605269 206489382 206489382-AddedOffRampEdge 42064232 1120029186 43947365-AddedOnRampEdge 43947365"/>
    </vehicle>
    <vehicle id="bus118" type="bus_bus" depart="51.62">
        <route edges="70707218 70707218-AddedOffRampEdge 42064105 42064105-AddedOffRampEdge 406802122 1120029183 43947369#1-AddedOnRampEdge 43947369#1 170601197"/>
    </vehicle>
    <vehicle id="bus119" type="bus_bus" depart="52.06">
        <route edges="42064236 170605264 170605269 206489382 206489382-AddedOffRampEdge 42064232 1120029186 43947365-AddedOnRampEdge 43947365"/>
    </vehicle>
    <vehicle id="bus121" type="bus_bus" depart="52.93">
        <route edges="42064236 170605264 170605269 206489382 206489382-AddedOffRampEdge 43947390#1 277653336 206489380 43947382 43947368-AddedOnRampEdge"/>
    </vehicle>
    <vehicle id="bus123" type="bus_bus" depart="53.81">
        <route edges="1139168722 206489379-AddedOnRampEdge 206489379 170605263"/>
    </vehicle>
    <vehicle id="bus126" type="bus_bus" depart="55.12">
        <route edges="1118511056 1118511056-AddedOffRampEdge 1120029196 1139168722 206489379-AddedOnRampEdge 206489379 170605263"/>
    </vehicle>
    <vehicle id="bus127" type="bus_bus" depart="55.56">
        <route edges="70707218-AddedOffRampEdge"/>
    </vehicle>
    <vehicle id="bus129" type="bus_bus" depart="56.43">
        <route edges="170605269 206489382 206489382-AddedOffRampEdge 43947390#1 277653336 206489380 43947382 43947368-AddedOnRampEdge"/>
    </vehicle>
    <vehicle id="bus133" type="bus_bus" depart="58.18">
        <route edges="42064236 170605264 170605269 206489382 206489382-AddedOffRampEdge 43947390#1"/>
    </vehicle>
    <vehicle id="bus136" type="bus_bus" depart="59.49">
        <route edges="43947368-AddedOnRampEdge"/>
    </vehicle>
    <vehicle id="bus137" type="bus_bus" depart="59.93">
        <route edges="1118511056 1118511056-AddedOffRampEdge 1120029196 1139168722"/>
    </vehicle>
    <vehicle id="bus140" type="bus_bus" depart="61.24">
        <route edges="660731151 43947369#1-AddedOnRampEdge 43947369#1 170601197"/>
    </vehicle>
    <vehicle id="bus141" type="bus_bus" depart="61.68">
        <route edges="42064236 170605264 170605269 1120029182 1120029183 43947369#1-AddedOnRampEdge 43947369#1 170601197"/>
    </vehicle>
    <vehicle id="bus145" type="bus_bus" depart="63.43">
        <route edges="1118511056 1118511056-AddedOffRampEdge 1122897133 1120029190 1120029189 43947368-AddedOnRampEdge 43947368"/>
    </vehicle>
    <vehicle id="bus146" type="bus_bus" depart="63.87">
        <route edges="42064236 170605264 170605269 1120029182 1120029183 43947369#1-AddedOnRampEdge 43947369#1 170601197"/>
    </vehicle>
    <vehicle id="bus149" type="bus_bus" depart="65.18">
        <route edges="1118511056 1118511056-AddedOffRampEdge 1122897133 1120029190 1120029189 43947368-AddedOnRampEdge 43947368"/>
    </vehicle>
    <vehicle id="bus150" type="bus_bus" depart="65.62">
        <route edges="70707218 70707218-AddedOffRampEdge 42064105 42064105-AddedOffRampEdge 406802122"/>
    </vehicle>
    <vehicle id="bus153" type="bus_bus" depart="66.93">
        <route edges="206489382-AddedOffRampEdge 43947390#1 277653336 206489380 43947382 43947368-AddedOnRampEdge 43947368"/>
    </vehicle>
    <vehicle id="bus155" type="bus_bus" depart="67.81">
        <route edges="70707218 70707218-AddedOffRampEdge 42064105 42064105-AddedOffRampEdge 406802122 1120029183 43947369#1-AddedOnRampEdge 43947369#1 170601197"/>
    </vehicle>
    <vehicle id="bus158" type="bus_bus" depart="69.12">
        <route edges="277654571 170601193 43947365-AddedOnRampEdge 43947365"/>
    </vehicle>
    <vehicle id="bus160" type="bus_bus" depart="69.99">
        <route edges="70707218 70707218-AddedOffRampEdge 42064105 42064105-AddedOffRampEdge 43947386#1"/>
    </vehicle>
    <vehicle id="bus163" type="bus_bus" depart="71.31">
        <route edges="277654571 1122897134 41844004 1120029190 1120029189 43947368-AddedOnRampEdge 43947368"/>
    </vehicle>
    <vehicle id="bus165" type="bus_bus" depart="72.18">
        <route edges="660731151 43947369#1-AddedOnRampEdge 43947369#1 170601197"/>
    </vehicle>
    <vehicle id="bus168" type="bus_bus" depart="73.49">
        <route edges="1122897133 1120029190 1120029189 43947368-AddedOnRampEdge 43947368"/>
    </vehicle>
    <vehicle id="bus169" type="bus_bus" depart="73.93">
        <route edges="277654571 1122897134 1120029191 1139168722 206489379-AddedOnRampEdge 206489379 170605263"/>
    </vehicle>
    <vehicle id="bus170" type="bus_bus" depart="74.37">
        <route edges="660731151 43947369#1-AddedOnRampEdge 43947369#1 170601197"/>
    </vehicle>
    <vehicle id="bus172" type="bus_bus" depart="75.24">
        <route edges="277654571 1122897134 41844004 1120029190 1120029189 43947368-AddedOnRampEdge 43947368"/>
    </vehicle>
    <vehicle id="bus173" type="bus_bus" depart="75.68">
        <route edges="70707218 70707218-AddedOffRampEdge 42064105 42064105-AddedOffRampEdge 406802122 1120029183 43947369#1-AddedOnRampEdge 43947369#1 170601197"/>
    </vehicle>
    <vehicle id="bus177" type="bus_bus" depart="77.43">
        <route edges="70707218 70707218-AddedOffRampEdge 42064105 42064105-AddedOffRampEdge 406802122 1120029183 43947369#1-AddedOnRampEdge 43947369#1 170601197"/>
    </vehicle>
    <vehicle id="bus178" type="bus_bus" depart="77.87">
        <route edges="70707218 70707218-AddedOffRampEdge 42064105 42064105-AddedOffRampEdge 406802122 1120029183 43947369#1-AddedOnRampEdge 43947369#1 170601197"/>
    </vehicle>
    <vehicle id="bus179" type="bus_bus" depart="78.31">
        <route edges="1118511056 1118511056-AddedOffRampEdge 1120029196 1139168722 206489379-AddedOnRampEdge 206489379 170605263"/>
    </vehicle>
    <vehicle id="bus181" type="bus_bus" depart="79.18">
        <route edges="42064236 170605264 170605269 206489382"/>
    </vehicle>
    <vehicle id="bus183" type="bus_bus" depart="80.05">
        <route edges="170605264 170605269 206489382 206489382-AddedOffRampEdge 42064232 1120029186 43947365-AddedOnRampEdge 43947365"/>
    </vehicle>
    <vehicle id="bus184" type="bus_bus" depart="80.49">
        <route edges="1118511056 1118511056-AddedOffRampEdge 1122897133 1120029190 1120029189 43947368-AddedOnRampEdge 43947368"/>
    </vehicle>
    <vehicle id="bus185" type="bus_bus" depart="80.93">
        <route edges="42064236 170605264 170605269 206489382 206489382-AddedOffRampEdge 42064232 1120029186 43947365-AddedOnRampEdge 43947365"/>
    </vehicle>
    <vehicle id="bus187" type="bus_bus" depart="81.80">
        <route edges="277654571 1122897134 1120029191"/>
    </vehicle>
    <vehicle id="bus189" type="bus_bus" depart="82.68">
        <route edges="277653336 206489380 43947382 43947368-AddedOnRampEdge 43947368"/>
    </vehicle>
    <vehicle id="bus192" type="bus_bus" depart="83.99">
        <route edges="277654571 1122897134 1120029191 1139168722 206489379-AddedOnRampEdge 206489379 170605263"/>
    </vehicle>
    <vehicle id="bus193" type="bus_bus" depart="84.43">
        <route edges="1118511056 1118511056-AddedOffRampEdge 1120029196 1139168722 206489379-AddedOnRampEdge 206489379 170605263"/>
    </vehicle>
    <vehicle id="bus194" type="bus_bus" depart="84.87">
        <route edges="70707218 70707218-AddedOffRampEdge 1120029181 1120029186 43947365-AddedOnRampEdge 43947365"/>
    </vehicle>
    <vehicle id="bus195" type="bus_bus" depart="85.30">
        <route edges="70707218 70707218-AddedOffRampEdge 1120029181 1120029186 43947365-AddedOnRampEdge 43947365"/>
    </vehicle>
    <vehicle id="bus201" type="bus_bus" depart="87.93">
        <route edges="41844004 1120029190 1120029189 43947368-AddedOnRampEdge 43947368"/>
    </vehicle>
    <vehicle id="bus202" type="bus_bus" depart="88.37">
        <route edges="660731151 43947369#1-AddedOnRampEdge 43947369#1 170601197"/>
    </vehicle>
    <vehicle id="bus206" type="bus_bus" depart="90.12">
        <route edges="43947369#1-AddedOnRampEdge 43947369#1 170601197"/>
    </vehicle>
    <vehicle id="bus210" type="bus_bus" depart="91.87">
        <route edges="277654571 170601193 43947365-AddedOnRampEdge 43947365"/>
    </vehicle>
    <vehicle id="bus212" type="bus_bus" depart="92.74">
        <route edges="42064105-AddedOffRampEdge 406802122 1120029183 43947369#1-AddedOnRampEdge 43947369#1 170601197"/>
    </vehicle>
    <vehicle id="bus215" type="bus_bus" depart="94.05">
        <route edges="1118511056 1118511056-AddedOffRampEdge 1120029196 1139168722 206489379-AddedOnRampEdge 206489379 170605263"/>
    </vehicle>
    <vehicle id="bus216" type="bus_bus" depart="94.49">
        <route edges="1120029183 43947369#1-AddedOnRampEdge"/>
    </vehicle>
    <vehicle id="bus219" type="bus_bus" depart="95.80">
        <route edges="277654571 1122897134 41844004 1120029190 1120029189 43947368-AddedOnRampEdge 43947368"/>
    </vehicle>
    <vehicle id="bus221" type="bus_bus" depart="96.68">
        <route edges="42064236 170605264 170605269 1120029182 1120029183 43947369#1-AddedOnRampEdge 43947369#1"/>
    </vehicle>
    <vehicle id="bus222" type="bus_bus" depart="97.12">
        <route edges="70707218 70707218-AddedOffRampEdge 1120029181 1120029186 43947365-AddedOnRampEdge 43947365"/>
    </vehicle>
    <vehicle id="bus225" type="bus_bus" depart="98.43">
        <route edges="70707218 70707218-AddedOffRampEdge 1120029181 1120029186 43947365-AddedOnRampEdge 43947365"/>
    </vehicle>
    <vehicle id="bus227" type="bus_bus" depart="99.30">
        <route edges="170601193 43947365-AddedOnRampEdge 43947365"/>
    </vehicle>
    <vehicle id="bus229" type="bus_bus" depart="100.18">
        <route edges="42064236 170605264 170605269 1120029182 1120029183 43947369#1-AddedOnRampEdge 43947369#1 170601197"/>
    </vehicle>
    <vehicle id="bus231" type="bus_bus" depart="101.05">
        <route edges="206489379 170605263"/>
    </vehicle>
    <vehicle id="bus232" type="bus_bus" depart="101.49">
        <route edges="42064236 170605264 170605269 1120029182 1120029183 43947369#1-AddedOnRampEdge 43947369#1 170601197"/>
    </vehicle>
    <vehicle id="bus237" type="bus_bus" depart="103.68">
        <route edges="277654571 1122897134 41844004 1120029190 1120029189 43947368-AddedOnRampEdge 43947368"/>
    </vehicle>
    <vehicle id="bus238" type="bus_bus" depart="104.12">
        <route edges="42064236 170605264 170605269 206489382 206489382-AddedOffRampEdge 42064232 1120029186 43947365-AddedOnRampEdge 43947365"/>
    </vehicle>
    <vehicle id="bus241" type="bus_bus" depart="105.43">
        <route edges="277654571 170601193 43947365-AddedOnRampEdge 43947365"/>
    </vehicle>
    <vehicle id="bus242" type="bus_bus" depart="105.86">
        <route edges="70707218 70707218-AddedOffRampEdge 42064105 42064105-AddedOffRampEdge 406802122 1120029183 43947369#1-AddedOnRampEdge"/>
    </vehicle>
    <vehicle id="bus243" type="bus_bus" depart="106.30">
        <route edges="277654571 170601193 43947365-AddedOnRampEdge 43947365"/>
    </vehicle>
    <vehicle id="bus244" type="bus_bus" depart="106.74">
        <route edges="42064236 170605264 170605269 206489382 206489382-AddedOffRampEdge 42064232 1120029186 43947365-AddedOnRampEdge 43947365"/>
    </vehicle>
    <vehicle id="bus247" type="bus_bus" depart="108.05">
        <route edges="277654571 170601193 43947365-AddedOnRampEdge 43947365"/>
    </vehicle>
    <vehicle id="bus249" type="bus_bus" depart="108.93">
        <route edges="406802122 1120029183 43947369#1-AddedOnRampEdge 43947369#1 170601197"/>
    </vehicle>
    <vehicle id="bus250" type="bus_bus" depart="109.36">
        <route edges="42064236 170605264 170605269 1120029182"/>
    </vehicle>
    <vehicle id="bus254" type="bus_bus" depart="111.11">
        <route edges="1118511056 1118511056-AddedOffRampEdge 1120029196 1139168722 206489379-AddedOnRampEdge 206489379 170605263"/>
    </vehicle>
    <vehicle id="bus255" type="bus_bus" depart="111.55">
        <route edges="1120029196 1139168722 206489379-AddedOnRampEdge 206489379 170605263"/>
    </vehicle>
    <vehicle id="bus260" type="bus_bus" depart="113.74">
        <route edges="70707218-AddedOffRampEdge 42064105 42064105-AddedOffRampEdge 43947386#1 206489379-AddedOnRampEdge 206489379 170605263"/>
    </vehicle>
    <vehicle id="bus262" type="bus_bus" depart="114.61">
        <route edges="43947365-AddedOnRampEdge 43947365"/>
    </vehicle>
    <vehicle id="bus263" type="bus_bus" depart="115.05">
        <route edges="70707218 70707218-AddedOffRampEdge 42064105 42064105-AddedOffRampEdge 406802122 1120029183 43947369#1-AddedOnRampEdge 43947369#1 170601197"/>
    </vehicle>
    <vehicle id="bus266" type="bus_bus" depart="116.36">
        <route edges="42064236 170605264 170605269 1120029182 1120029183 43947369#1-AddedOnRampEdge 43947369#1 170601197"/>
    </vehicle>
    <vehicle id="bus267" type="bus_bus" depart="116.80">
        <route edges="43947390#1 277653336 206489380 43947382 43947368-AddedOnRampEdge 43947368"/>
    </vehicle>
    <vehicle id="bus273" type="bus_bus" depart="119.43">
        <route edges="70707218 70707218-AddedOffRampEdge 42064105 42064105-AddedOffRampEdge 43947386#1 206489379-AddedOnRampEdge 206489379 170605263"/>
    </vehicle>
    <vehicle id="bus276" type="bus_bus" depart="120.74">
        <route edges="1118511056 1118511056-AddedOffRampEdge 1122897133 1120029190 1120029189 43947368-AddedOnRampEdge 43947368"/>
    </vehicle>
    <vehicle id="bus277" type="bus_bus" depart="121.18">
        <route edges="70707218 70707218-AddedOffRampEdge 1120029181 1120029186 43947365-AddedOnRampEdge 43947365"/>
    </vehicle>
    <vehicle id="bus280" type="bus_bus" depart="122.49">
        <route edges="277654571 1122897134 1120029191 1139168722 206489379-AddedOnRampEdge 206489379 170605263"/>
    </vehicle>
    <vehicle id="bus284" type="bus_bus" depart="124.24">
        <route edges="42064236 170605264 170605269 206489382 206489382-AddedOffRampEdge 43947390#1 277653336 206489380 43947382 43947368-AddedOnRampEdge 43947368"/>
    </vehicle>
    <vehicle id="bus289" type="bus_bus" depart="126.43">
        <route edges="277654571 170601193 43947365-AddedOnRampEdge 43947365"/>
    </vehicle>
    <vehicle id="bus290" type="bus_bus" depart="126.86">
        <route edges="170605269 206489382 206489382-AddedOffRampEdge 43947390#1 277653336 206489380 43947382 43947368-AddedOnRampEdge 43947368"/>
    </vehicle>
    <vehicle id="bus292" type="bus_bus" depart="127.74">
        <route edges="70707218 70707218-AddedOffRampEdge 42064105 42064105-AddedOffRampEdge 406802122 1120029183 43947369#1-AddedOnRampEdge 43947369#1 170601197"/>
    </vehicle>
    <vehicle id="bus295" type="bus_bus" depart="129.05">
        <route edges="70707218 70707218-AddedOffRampEdge 42064105 42064105-AddedOffRampEdge 406802122 1120029183 43947369#1-AddedOnRampEdge 43947369#1 170601197"/>
    </vehicle>
    <vehicle id="bus297" type="bus_bus" depart="129.93">
        <route edges="277654571 1122897134 41844004 1120029190 1120029189 43947368-AddedOnRampEdge 43947368"/>
    </vehicle>
    <vehicle id="bus305" type="bus_bus" depart="133.42">
        <route edges="43947386#1 206489379-AddedOnRampEdge 206489379 170605263"/>
    </vehicle>
    <vehicle id="bus306" type="bus_bus" depart="133.86">
        <route edges="42064236 170605264 170605269"/>
    </vehicle>
    <vehicle id="bus310" type="bus_bus" depart="135.61">
        <route edges="170601193"/>
    </vehicle>
    <vehicle id="bus312" type="bus_bus" depart="136.49">
        <route edges="42064236 170605264 170605269 206489382 206489382-AddedOffRampEdge 42064232 1120029186 43947365-AddedOnRampEdge"/>
    </vehicle>
    <vehicle id="bus319" type="bus_bus" depart="139.55">
        <route edges="42064236 170605264 170605269 1120029182 1120029183 43947369#1-AddedOnRampEdge 43947369#1 170601197"/>
    </vehicle>
    <vehicle id="bus322" type="bus_bus" depart="140.86">
        <route edges="70707218 70707218-AddedOffRampEdge 42064105 42064105-AddedOffRampEdge 43947386#1 206489379-AddedOnRampEdge"/>
    </vehicle>
    <vehicle id="bus323" type="bus_bus" depart="141.30">
        <route edges="70707218 70707218-AddedOffRampEdge 42064105 42064105-AddedOffRampEdge"/>
    </vehicle>
    <vehicle id="bus333" type="bus_bus" depart="145.67">
        <route edges="660731151 43947369#1-AddedOnRampEdge 43947369#1 170601197"/>
    </vehicle>
    <vehicle id="bus335" type="bus_bus" depart="146.55">
        <route edges="277654571 1122897134 41844004 1120029190 1120029189 43947368-AddedOnRampEdge 43947368"/>
    </vehicle>
    <vehicle id="bus336" type="bus_bus" depart="146.99">
        <route edges="70707218 70707218-AddedOffRampEdge 42064105 42064105-AddedOffRampEdge 43947386#1 206489379-AddedOnRampEdge 206489379 170605263"/>
    </vehicle>
    <vehicle id="bus337" type="bus_bus" depart="147.42">
        <route edges="42064236 170605264 170605269 206489382 206489382-AddedOffRampEdge 42064232 1120029186 43947365-AddedOnRampEdge 43947365"/>
    </vehicle>
    <vehicle id="bus338" type="bus_bus" depart="147.86">
        <route edges="660731151 43947369#1-AddedOnRampEdge 43947369#1"/>
    </vehicle>
    <vehicle id="bus342" type="bus_bus" depart="149.61">
        <route edges="1118511056 1118511056-AddedOffRampEdge 1120029196 1139168722 206489379-AddedOnRampEdge 206489379 170605263"/>
    </vehicle>
    <vehicle id="bus343" type="bus_bus" depart="150.05">
        <route edges="42064236 170605264 170605269 1120029182 1120029183 43947369#1-AddedOnRampEdge 43947369#1 170601197"/>
    </vehicle>
    <vehicle id="bus346" type="bus_bus" depart="151.36">
        <route edges="43947382 43947368-AddedOnRampEdge 43947368"/>
    </vehicle>
    <vehicle id="bus348" type="bus_bus" depart="152.24">
        <route edges="43947368-AddedOnRampEdge"/>
    </vehicle>
    <vehicle id="bus358" type="bus_bus" depart="156.61">
        <route edges="1118511056 1118511056-AddedOffRampEdge 1120029196 1139168722 206489379-AddedOnRampEdge 206489379 170605263"/>
    </vehicle>
    <vehicle id="bus362" type="bus_bus" depart="158.36">
        <route edges="70707218 70707218-AddedOffRampEdge"/>
    </vehicle>
    <vehicle id="bus363" type="bus_bus" depart="158.80">
        <route edges="43947369#1-AddedOnRampEdge 43947369#1 170601197"/>
    </vehicle>
    <vehicle id="bus366" type="bus_bus" depart="160.11">
        <route edges="70707218 70707218-AddedOffRampEdge 42064105 42064105-AddedOffRampEdge 406802122 1120029183 43947369#1-AddedOnRampEdge 43947369#1 170601197"/>
    </vehicle>
    <vehicle id="bus367" type="bus_bus" depart="160.55">
        <route edges="42064236 170605264 170605269 206489382 206489382-AddedOffRampEdge 42064232 1120029186 43947365-AddedOnRampEdge 43947365"/>
    </vehicle>
    <vehicle id="bus369" type="bus_bus" depart="161.42">
        <route edges="277654571 1122897134 1120029191 1139168722 206489379-AddedOnRampEdge 206489379 170605263"/>
    </vehicle>
    <vehicle id="bus371" type="bus_bus" depart="162.30">
        <route edges="277654571 170601193 43947365-AddedOnRampEdge 43947365"/>
    </vehicle>
    <vehicle id="bus374" type="bus_bus" depart="163.61">
        <route edges="277654571 1122897134 1120029191 1139168722 206489379-AddedOnRampEdge 206489379 170605263"/>
    </vehicle>
    <vehicle id="bus377" type="bus_bus" depart="164.92">
        <route edges="70707218 70707218-AddedOffRampEdge 1120029181 1120029186 43947365-AddedOnRampEdge 43947365"/>
    </vehicle>
    <vehicle id="bus381" type="bus_bus" depart="166.67">
        <route edges="660731151 43947369#1-AddedOnRampEdge 43947369#1 170601197"/>
    </vehicle>
    <vehicle id="bus382" type="bus_bus" depart="167.11">