<?xml version="1.0" encoding="UTF-8"?>

<!-- generated on 2024-12-04 18:09:30.301772 by main.py UNKNOWN
<configuration>
    <net-file value="/root/myvenv/nextpj/src/backend/data/scenario_1733335764/osm.net.xml.gz"/>
    <output-trip-file value="/root/myvenv/nextpj/src/backend/data/scenario_1733335764/osm.bus.trips.xml"/>
    <route-file value="/root/myvenv/nextpj/src/backend/data/scenario_1733335764/osm.bus.rou.xml"/>
    <prefix value="bus"/>
    <vehicle-class value="bus"/>
    <fringe-factor value="17.0"/>
    <validate value="True"/>
    <insertion-density value="90.0"/>
</configuration>
-->

<!-- generated on 2024-12-04 18:09:30 by Eclipse SUMO duarouter Version 1.21.0
<duarouterConfiguration xmlns:xsi="http://www.w3.org/2001/XMLSchema-instance" xsi:noNamespaceSchemaLocation="http://sumo.dlr.de/xsd/duarouterConfiguration.xsd">

    <input>
        <net-file value="/root/myvenv/nextpj/src/backend/data/scenario_1733335764/osm.net.xml.gz"/>
        <route-files value="/root/myvenv/nextpj/src/backend/data/scenario_1733335764/osm.bus.trips.xml"/>
    </input>

    <output>
        <output-file value="/root/myvenv/nextpj/src/backend/data/scenario_1733335764/osm.bus.trips.xml.tmp"/>
        <alternatives-output value="NUL"/>
        <write-trips value="true"/>
    </output>

    <time>
        <begin value="0.0"/>
        <end value="3600.0"/>
    </time>

    <report>
        <no-warnings value="true"/>
        <ignore-errors value="true"/>
        <no-step-log value="true"/>
    </report>

</duarouterConfiguration>
-->

<routes xmlns:xsi="http://www.w3.org/2001/XMLSchema-instance" xsi:noNamespaceSchemaLocation="http://sumo.dlr.de/xsd/routes_file.xsd">
    <vType id="bus_bus" vClass="bus"/>
    <trip id="bus0" type="bus_bus" depart="0.00" from="42064236" to="1120029182"/>
    <trip id="bus12" type="bus_bus" depart="5.25" from="70707218" to="170605263"/>
    <trip id="bus13" type="bus_bus" depart="5.69" from="1118511056" to="1122897133"/>
    <trip id="bus17" type="bus_bus" depart="7.44" from="277654571" to="41844004"/>
    <trip id="bus19" type="bus_bus" depart="8.31" from="70707218" to="42064105-AddedOffRampEdge"/>
    <trip id="bus26" type="bus_bus" depart="11.37" from="170605269" to="43947368-AddedOnRampEdge"/>
    <trip id="bus27" type="bus_bus" depart="11.81" from="43947365-AddedOnRampEdge" to="43947365"/>
    <trip id="bus30" type="bus_bus" depart="13.12" from="70707218" to="43947365"/>
    <trip id="bus31" type="bus_bus" depart="13.56" from="42064236" to="43947365"/>
    <trip id="bus36" type="bus_bus" depart="15.75" from="70707218" to="170605263"/>
    <trip id="bus38" type="bus_bus" depart="16.62" from="70707218" to="170605263"/>
    <trip id="bus39" type="bus_bus" depart="17.06" from="170605269" to="170601197"/>
    <trip id="bus40" type="bus_bus" depart="17.50" from="42064236" to="170601197"/>
    <trip id="bus41" type="bus_bus" depart="17.94" from="42064236" to="43947368"/>
    <trip id="bus47" type="bus_bus" depart="20.56" from="1118511056" to="170605263"/>
    <trip id="bus52" type="bus_bus" depart="22.75" from="170605269" to="43947365"/>
    <trip id="bus53" type="bus_bus" depart="23.19" from="1118511056" to="170605263"/>
    <trip id="bus55" type="bus_bus" depart="24.06" from="70707218" to="170601197"/>
    <trip id="bus58" type="bus_bus" depart="25.37" from="206489382" to="43947365"/>
    <trip id="bus59" type="bus_bus" depart="25.81" from="42064236" to="170601197"/>
    <trip id="bus62" type="bus_bus" depart="27.12" from="1118511056" to="170605263"/>
    <trip id="bus63" type="bus_bus" depart="27.56" from="1118511056" to="43947368"/>
    <trip id="bus66" type="bus_bus" depart="28.87" from="70707218" to="43947369#1"/>
    <trip id="bus67" type="bus_bus" depart="29.31" from="1118511056" to="206489379"/>
    <trip id="bus69" type="bus_bus" depart="30.18" from="660731151" to="170601197"/>
    <trip id="bus70" type="bus_bus" depart="30.62" from="41844004" to="41844004"/>
    <trip id="bus71" type="bus_bus" depart="31.06" from="170605269" to="43947368"/>
    <trip id="bus73" type="bus_bus" depart="31.93" from="42064236" to="43947365"/>
    <trip id="bus75" type="bus_bus" depart="32.81" from="70707218-AddedOffRampEdge" to="43947365"/>
    <trip id="bus78" type="bus_bus" depart="34.12" from="277654571" to="43947365"/>
    <trip id="bus81" type="bus_bus" depart="35.43" from="1122897134" to="43947368"/>
    <trip id="bus85" type="bus_bus" depart="37.18" from="70707218" to="42064105-AddedOffRampEdge"/>
    <trip id="bus86" type="bus_bus" depart="37.62" from="41844004" to="43947368"/>
    <trip id="bus87" type="bus_bus" depart="38.06" from="660731151" to="170601197"/>
    <trip id="bus88" type="bus_bus" depart="38.50" from="1118511056" to="170605263"/>
    <trip id="bus92" type="bus_bus" depart="40.25" from="277654571" to="170605263"/>
    <trip id="bus93" type="bus_bus" depart="40.68" from="70707218" to="170601197"/>
    <trip id="bus97" type="bus_bus" depart="42.43" from="277654571" to="43947368"/>
    <trip id="bus101" type="bus_bus" depart="44.18" from="660731151" to="170601197"/>
    <trip id="bus102" type="bus_bus" depart="44.62" from="42064105" to="170601197"/>
    <trip id="bus103" type="bus_bus" depart="45.06" from="277654571" to="1120029189"/>
    <trip id="bus105" type="bus_bus" depart="45.93" from="170605269" to="43947368"/>
    <trip id="bus106" type="bus_bus" depart="46.37" from="277654571" to="170605263"/>
    <trip id="bus107" type="bus_bus" depart="46.81" from="70707218" to="70707218-AddedOffRampEdge"/>
    <trip id="bus108" type="bus_bus" depart="47.25" from="42064236" to="43947365"/>
    <trip id="bus111" type="bus_bus" depart="48.56" from="42064236" to="43947365"/>
    <trip id="bus116" type="bus_bus" depart="50.75" from="42064236" to="43947365"/>
    <trip id="bus118" type="bus_bus" depart="51.62" from="70707218" to="170601197"/>
    <trip id="bus119" type="bus_bus" depart="52.06" from="42064236" to="43947365"/>
    <trip id="bus121" type="bus_bus" depart="52.93" from="42064236" to="43947368-AddedOnRampEdge"/>
    <trip id="bus123" type="bus_bus" depart="53.81" from="1139168722" to="170605263"/>
    <trip id="bus126" type="bus_bus" depart="55.12" from="1118511056" to="170605263"/>
    <trip id="bus127" type="bus_bus" depart="55.56" from="70707218-AddedOffRampEdge" to="70707218-AddedOffRampEdge"/>
    <trip id="bus129" type="bus_bus" depart="56.43" from="170605269" to="43947368-AddedOnRampEdge"/>
    <trip id="bus133" type="bus_bus" depart="58.18" from="42064236" to="43947390#1"/>
    <trip id="bus136" type="bus_bus" depart="59.49" from="43947368-AddedOnRampEdge" to="43947368-AddedOnRampEdge"/>
    <trip id="bus137" type="bus_bus" depart="59.93" from="1118511056" to="1139168722"/>
    <trip id="bus140" type="bus_bus" depart="61.24" from="660731151" to="170601197"/>
    <trip id="bus141" type="bus_bus" depart="61.68" from="42064236" to="170601197"/>
    <trip id="bus145" type="bus_bus" depart="63.43" from="1118511056" to="43947368"/>
    <trip id="bus146" type="bus_bus" depart="63.87" from="42064236" to="170601197"/>
    <trip id="bus149" type="bus_bus" depart="65.18" from="1118511056" to="43947368"/>
    <trip id="bus150" type="bus_bus" depart="65.62" from="70707218" to="406802122"/>
    <trip id="bus153" type="bus_bus" depart="66.93" from="206489382-AddedOffRampEdge" to="43947368"/>
    <trip id="bus155" type="bus_bus" depart="67.81" from="70707218" to="170601197"/>
    <trip id="bus158" type="bus_bus" depart="69.12" from="277654571" to="43947365"/>
    <trip id="bus160" type="bus_bus" depart="69.99" from="70707218" to="43947386#1"/>
    <trip id="bus163" type="bus_bus" depart="71.31" from="277654571" to="43947368"/>
    <trip id="bus165" type="bus_bus" depart="72.18" from="660731151" to="170601197"/>
    <trip id="bus168" type="bus_bus" depart="73.49" from="1122897133" to="43947368"/>
    <trip id="bus169" type="bus_bus" depart="73.93" from="277654571" to="170605263"/>
    <trip id="bus170" type="bus_bus" depart="74.37" from="660731151" to="170601197"/>
    <trip id="bus172" type="bus_bus" depart="75.24" from="277654571" to="43947368"/>
    <trip id="bus173" type="bus_bus" depart="75.68" from="70707218" to="170601197"/>
    <trip id="bus177" type="bus_bus" depart="77.43" from="70707218" to="170601197"/>
    <trip id="bus178" type="bus_bus" depart="77.87" from="70707218" to="170601197"/>
    <trip id="bus179" type="bus_bus" depart="78.31" from="1118511056" to="170605263"/>
    <trip id="bus181" type="bus_bus" depart="79.18" from="42064236" to="206489382"/>
    <trip id="bus183" type="bus_bus" depart="80.05" from="170605264" to="43947365"/>
    <trip id="bus184" type="bus_bus" depart="80.49" from="1118511056" to="43947368"/>
    <trip id="bus185" type="bus_bus" depart="80.93" from="42064236" to="43947365"/>
    <trip id="bus187" type="bus_bus" depart="81.80" from="277654571" to="1120029191"/>
    <trip id="bus189" type="bus_bus" depart="82.68" from="277653336" to="43947368"/>
    <trip id="bus192" type="bus_bus" depart="83.99" from="277654571" to="170605263"/>
    <trip id="bus193" type="bus_bus" depart="84.43" from="1118511056" to="170605263"/>
    <trip id="bus194" type="bus_bus" depart="84.87" from="70707218" to="43947365"/>
    <trip id="bus195" type="bus_bus" depart="85.30" from="70707218" to="43947365"/>
    <trip id="bus201" type="bus_bus" depart="87.93" from="41844004" to="43947368"/>
    <trip id="bus202" type="bus_bus" depart="88.37" from="660731151" to="170601197"/>
    <trip id="bus206" type="bus_bus" depart="90.12" from="43947369#1-AddedOnRampEdge" to="170601197"/>
    <trip id="bus210" type="bus_bus" depart="91.87" from="277654571" to="43947365"/>
    <trip id="bus212" type="bus_bus" depart="92.74" from="42064105-AddedOffRampEdge" to="170601197"/>
    <trip id="bus215" type="bus_bus" depart="94.05" from="1118511056" to="170605263"/>
    <trip id="bus216" type="bus_bus" depart="94.49" from="1120029183" to="43947369#1-AddedOnRampEdge"/>
    <trip id="bus219" type="bus_bus" depart="95.80" from="277654571" to="43947368"/>
    <trip id="bus221" type="bus_bus" depart="96.68" from="42064236" to="43947369#1"/>
    <trip id="bus222" type="bus_bus" depart="97.12" from="70707218" to="43947365"/>
    <trip id="bus225" type="bus_bus" depart="98.43" from="70707218" to="43947365"/>
    <trip id="bus227" type="bus_bus" depart="99.30" from="170601193" to="43947365"/>
    <trip id="bus229" type="bus_bus" depart="100.18" from="42064236" to="170601197"/>
    <trip id="bus231" type="bus_bus" depart="101.05" from="206489379" to="170605263"/>
    <trip id="bus232" type="bus_bus" depart="101.49" from="42064236" to="170601197"/>
    <trip id="bus237" type="bus_bus" depart="103.68" from="277654571" to="43947368"/>
    <trip id="bus238" type="bus_bus" depart="104.12" from="42064236" to="43947365"/>
    <trip id="bus241" type="bus_bus" depart="105.43" from="277654571" to="43947365"/>
    <trip id="bus242" type="bus_bus" depart="105.86" from="70707218" to="43947369#1-AddedOnRampEdge"/>
    <trip id="bus243" type="bus_bus" depart="106.30" from="277654571" to="43947365"/>
    <trip id="bus244" type="bus_bus" depart="106.74" from="42064236" to="43947365"/>
    <trip id="bus247" type="bus_bus" depart="108.05" from="277654571" to="43947365"/>
    <trip id="bus249" type="bus_bus" depart="108.93" from="406802122" to="170601197"/>
    <trip id="bus250" type="bus_bus" depart="109.36" from="42064236" to="1120029182"/>
    <trip id="bus254" type="bus_bus" depart="111.11" from="1118511056" to="170605263"/>
    <trip id="bus255" type="bus_bus" depart="111.55" from="1120029196" to="170605263"/>
    <trip id="bus260" type="bus_bus" depart="113.74" from="70707218-AddedOffRampEdge" to="170605263"/>
    <trip id="bus262" type="bus_bus" depart="114.61" from="43947365-AddedOnRampEdge" to="43947365"/>
    <trip id="bus263" type="bus_bus" depart="115.05" from="70707218" to="170601197"/>
    <trip id="bus266" type="bus_bus" depart="116.36" from="42064236" to="170601197"/>
    <trip id="bus267" type="bus_bus" depart="116.80" from="43947390#1" to="43947368"/>
    <trip id="bus273" type="bus_bus" depart="119.43" from="70707218" to="170605263"/>
    <trip id="bus276" type="bus_bus" depart="120.74" from="1118511056" to="43947368"/>
    <trip id="bus277" type="bus_bus" depart="121.18" from="70707218" to="43947365"/>
    <trip id="bus280" type="bus_bus" depart="122.49" from="277654571" to="170605263"/>
    <trip id="bus284" type="bus_bus" depart="124.24" from="42064236" to="43947368"/>
    <trip id="bus289" type="bus_bus" depart="126.43" from="277654571" to="43947365"/>
    <trip id="bus290" type="bus_bus" depart="126.86" from="170605269" to="43947368"/>
    <trip id="bus292" type="bus_bus" depart="127.74" from="70707218" to="170601197"/>
    <trip id="bus295" type="bus_bus" depart="129.05" from="70707218" to="170601197"/>
    <trip id="bus297" type="bus_bus" depart="129.93" from="277654571" to="43947368"/>
    <trip id="bus305" type="bus_bus" depart="133.42" from="43947386#1" to="170605263"/>
    <trip id="bus306" type="bus_bus" depart="133.86" from="42064236" to="170605269"/>
    <trip id="bus310" type="bus_bus" depart="135.61" from="170601193" to="170601193"/>
    <trip id="bus312" type="bus_bus" depart="136.49" from="42064236" to="43947365-AddedOnRampEdge"/>
    <trip id="bus319" type="bus_bus" depart="139.55" from="42064236" to="170601197"/>
    <trip id="bus322" type="bus_bus" depart="140.86" from="70707218" to="206489379-AddedOnRampEdge"/>
    <trip id="bus323" type="bus_bus" depart="141.30" from="70707218" to="42064105-AddedOffRampEdge"/>
    <trip id="bus333" type="bus_bus" depart="145.67" from="660731151" to="170601197"/>
    <trip id="bus335" type="bus_bus" depart="146.55" from="277654571" to="43947368"/>
    <trip id="bus336" type="bus_bus" depart="146.99" from="70707218" to="170605263"/>
    <trip id="bus337" type="bus_bus" depart="147.42" from="42064236" to="43947365"/>
    <trip id="bus338" type="bus_bus" depart="147.86" from="660731151" to="43947369#1"/>
    <trip id="bus342" type="bus_bus" depart="149.61" from="1118511056" to="170605263"/>
    <trip id="bus343" type="bus_bus" depart="150.05" from="42064236" to="170601197"/>
    <trip id="bus346" type="bus_bus" depart="151.36" from="43947382" to="43947368"/>
    <trip id="bus348" type="bus_bus" depart="152.24" from="43947368-AddedOnRampEdge" to="43947368-AddedOnRampEdge"/>
    <trip id="bus358" type="bus_bus" depart="156.61" from="1118511056" to="170605263"/>
    <trip id="bus362" type="bus_bus" depart="158.36" from="70707218" to="70707218-AddedOffRampEdge"/>
    <trip id="bus363" type="bus_bus" depart="158.80" from="43947369#1-AddedOnRampEdge" to="170601197"/>
    <trip id="bus366" type="bus_bus" depart="160.11" from="70707218" to="170601197"/>
    <trip id="bus367" type="bus_bus" depart="160.55" from="42064236" to="43947365"/>
    <trip id="bus369" type="bus_bus" depart="161.42" from="277654571" to="170605263"/>
    <trip id="bus371" type="bus_bus" depart="162.30" from="277654571" to="43947365"/>
    <trip id="bus374" type="bus_bus" depart="163.61" from="277654571" to="170605263"/>
    <trip id="bus377" type="bus_bus" depart="164.92" from="70707218" to="43947365"/>
    <trip id="bus381" type="bus_bus" depart="166.67" from="660731151" to="170601197"/>
    <trip id="bus382" type="bus_bus" depart="167.11" from="42064236" to="43947368"/>
    <trip id="bus383" type="bus_bus" depart="167.55" from="277654571" to="43947365"/>
    <trip id="bus385" type="bus_bus" depart="168.42" from="42064236" to="170601197"/>
    <trip id="bus389" type="bus_bus" depart="170.17" from="277654571" to="1139168722"/>
    <trip id="bus393" type="bus_bus" depart="171.92" from="70707218" to="170601197"/>
    <trip id="bus398" type="bus_bus" depart="174.11" from="277654571" to="43947368-AddedOnRampEdge"/>
    <trip id="bus399" type="bus_bus" depart="174.55" from="42064236" to="43947368"/>
    <trip id="bus400" type="bus_bus" depart="174.98" from="206489379-AddedOnRampEdge" to="170605263"/>
    <trip id="bus402" type="bus_bus" depart="175.86" from="42064105-AddedOffRampEdge" to="170601197"/>
    <trip id="bus405" type="bus_bus" depart="177.17" from="277654571" to="170605263"/>
    <trip id="bus407" type="bus_bus" depart="178.05" from="42064236" to="170601197"/>
    <trip id="bus411" type="bus_bus" depart="179.80" from="43947368-AddedOnRampEdge" to="43947368"/>
    <trip id="bus412" type="bus_bus" depart="180.23" from="70707218" to="206489379-AddedOnRampEdge"/>
    <trip id="bus414" type="bus_bus" depart="181.11" from="42064236" to="43947368"/>
    <trip id="bus415" type="bus_bus" depart="181.55" from="70707218" to="170605263"/>
    <trip id="bus420" type="bus_bus" depart="183.73" from="277654571" to="43947365"/>
    <trip id="bus423" type="bus_bus" depart="185.04" from="277654571" to="170605263"/>
    <trip id="bus425" type="bus_bus" depart="185.92" from="70707218" to="1120029183"/>
    <trip id="bus427" type="bus_bus" depart="186.79" from="70707218" to="70707218-AddedOffRampEdge"/>
    <trip id="bus430" type="bus_bus" depart="188.11" from="70707218" to="170605263"/>
    <trip id="bus432" type="bus_bus" depart="188.98" from="1118511056" to="43947368"/>
    <trip id="bus435" type="bus_bus" depart="190.29" from="42064236" to="43947368"/>
    <trip id="bus437" type="bus_bus" depart="191.17" from="70707218" to="43947365"/>
    <trip id="bus440" type="bus_bus" depart="192.48" from="170605264" to="170601197"/>
    <trip id="bus441" type="bus_bus" depart="192.92" from="1118511056" to="43947368"/>
    <trip id="bus442" type="bus_bus" depart="193.36" from="70707218" to="43947365"/>
    <trip id="bus448" type="bus_bus" depart="195.98" from="42064105" to="170601197"/>
    <trip id="bus450" type="bus_bus" depart="196.86" from="70707218-AddedOffRampEdge" to="170605263"/>
    <trip id="bus451" type="bus_bus" depart="197.29" from="70707218" to="43947365"/>
    <trip id="bus456" type="bus_bus" depart="199.48" from="206489380" to="43947368"/>
    <trip id="bus458" type="bus_bus" depart="200.36" from="42064236" to="43947365"/>
    <trip id="bus460" type="bus_bus" depart="201.23" from="43947368-AddedOnRampEdge" to="43947368"/>
    <trip id="bus461" type="bus_bus" depart="201.67" from="42064236" to="43947368"/>
    <trip id="bus465" type="bus_bus" depart="203.42" from="206489382" to="43947365"/>
    <trip id="bus466" type="bus_bus" depart="203.86" from="1120029183" to="170601197"/>
    <trip id="bus468" type="bus_bus" depart="204.73" from="42064236" to="43947368"/>
    <trip id="bus469" type="bus_bus" depart="205.17" from="660731151" to="170601197"/>
    <trip id="bus472" type="bus_bus" depart="206.48" from="277654571" to="1139168722"/>
    <trip id="bus473" type="bus_bus" depart="206.92" from="70707218" to="170601197"/>
    <trip id="bus477" type="bus_bus" depart="208.67" from="277654571" to="43947368"/>
    <trip id="bus479" type="bus_bus" depart="209.54" from="277654571" to="43947365"/>
    <trip id="bus483" type="bus_bus" depart="211.29" from="1118511056" to="43947368"/>
    <trip id="bus484" type="bus_bus" depart="211.73" from="42064236" to="43947368"/>
    <trip id="bus485" type="bus_bus" depart="212.17" from="1122897133" to="1120029190"/>
    <trip id="bus490" type="bus_bus" depart="214.35" from="1118511056" to="43947368"/>
    <trip id="bus491" type="bus_bus" depart="214.79" from="1118511056" to="170605263"/>
    <trip id="bus493" type="bus_bus" depart="215.67" from="70707218" to="170605263"/>
    <trip id="bus494" type="bus_bus" depart="216.10" from="660731151" to="170601197"/>
    <trip id="bus495" type="bus_bus" depart="216.54" from="277654571" to="1122897134"/>
    <trip id="bus496" type="bus_bus" depart="216.98" from="42064105-AddedOffRampEdge" to="170605263"/>
    <trip id="bus497" type="bus_bus" depart="217.42" from="70707218" to="1120029183"/>
    <trip id="bus498" type="bus_bus" depart="217.85" from="277654571" to="170605263"/>
    <trip id="bus502" type="bus_bus" depart="219.60" from="277654571" to="170605263"/>
    <trip id="bus506" type="bus_bus" depart="221.35" from="42064236" to="1120029182"/>
    <trip id="bus507" type="bus_bus" depart="221.79" from="660731151" to="170601197"/>
    <trip id="bus509" type="bus_bus" depart="222.67" from="1118511056" to="43947368"/>
    <trip id="bus511" type="bus_bus" depart="223.54" from="70707218" to="170605263"/>
    <trip id="bus512" type="bus_bus" depart="223.98" from="1118511056-AddedOffRampEdge" to="43947368"/>
    <trip id="bus513" type="bus_bus" depart="224.42" from="1118511056" to="43947368"/>
    <trip id="bus517" type="bus_bus" depart="226.17" from="1118511056" to="43947368"/>
    <trip id="bus518" type="bus_bus" depart="226.60" from="1139168722" to="170605263"/>
    <trip id="bus524" type="bus_bus" depart="229.23" from="70707218" to="1120029186"/>
    <trip id="bus537" type="bus_bus" depart="234.92" from="43947390#1" to="43947368"/>
    <trip id="bus539" type="bus_bus" depart="235.79" from="660731151" to="170601197"/>
    <trip id="bus541" type="bus_bus" depart="236.66" from="277654571" to="170605263"/>
    <trip id="bus543" type="bus_bus" depart="237.54" from="277654571" to="43947365"/>
    <trip id="bus550" type="bus_bus" depart="240.60" from="277654571" to="170601193"/>
    <trip id="bus551" type="bus_bus" depart="241.04" from="277654571" to="43947365"/>
    <trip id="bus555" type="bus_bus" depart="242.79" from="42064236" to="170601197"/>
    <trip id="bus557" type="bus_bus" depart="243.66" from="1118511056" to="43947368"/>
    <trip id="bus558" type="bus_bus" depart="244.10" from="277654571" to="43947365-AddedOnRampEdge"/>
    <trip id="bus559" type="bus_bus" depart="244.54" from="42064236" to="43947368"/>
    <trip id="bus562" type="bus_bus" depart="245.85" from="42064236" to="1120029182"/>
    <trip id="bus564" type="bus_bus" depart="246.73" from="170605269" to="170601197"/>
    <trip id="bus567" type="bus_bus" depart="248.04" from="70707218" to="42064105"/>
    <trip id="bus569" type="bus_bus" depart="248.91" from="42064236" to="1120029183"/>
    <trip id="bus570" type="bus_bus" depart="249.35" from="660731151" to="170601197"/>
    <trip id="bus571" type="bus_bus" depart="249.79" from="277654571" to="170605263"/>
    <trip id="bus572" type="bus_bus" depart="250.23" from="277654571" to="43947365"/>
    <trip id="bus574" type="bus_bus" depart="251.10" from="1118511056" to="1120029189"/>
    <trip id="bus575" type="bus_bus" depart="251.54" from="1120029181" to="43947365"/>
    <trip id="bus576" type="bus_bus" depart="251.98" from="43947369#1-AddedOnRampEdge" to="170601197"/>
    <trip id="bus583" type="bus_bus" depart="255.04" from="277654571" to="43947365"/>
    <trip id="bus584" type="bus_bus" depart="255.48" from="1118511056" to="170605263"/>
    <trip id="bus589" type="bus_bus" depart="257.66" from="43947390#1" to="206489380"/>
    <trip id="bus591" type="bus_bus" depart="258.54" from="1118511056" to="43947368"/>
    <trip id="bus597" type="bus_bus" depart="261.16" from="277654571" to="43947368"/>
    <trip id="bus598" type="bus_bus" depart="261.60" from="42064236" to="43947368"/>
    <trip id="bus600" type="bus_bus" depart="262.47" from="660731151" to="170601197"/>
    <trip id="bus601" type="bus_bus" depart="262.91" from="42064236" to="206489382-AddedOffRampEdge"/>
    <trip id="bus602" type="bus_bus" depart="263.35" from="277654571" to="170605263"/>
    <trip id="bus603" type="bus_bus" depart="263.79" from="277654571" to="170605263"/>
    <trip id="bus606" type="bus_bus" depart="265.10" from="70707218" to="170605263"/>
    <trip id="bus608" type="bus_bus" depart="265.97" from="660731151" to="170601197"/>
    <trip id="bus610" type="bus_bus" depart="266.85" from="42064236" to="43947365-AddedOnRampEdge"/>
    <trip id="bus614" type="bus_bus" depart="268.60" from="277654571" to="43947368"/>
    <trip id="bus615" type="bus_bus" depart="269.04" from="42064236" to="43947365"/>
    <trip id="bus616" type="bus_bus" depart="269.47" from="42064236" to="43947368"/>
    <trip id="bus617" type="bus_bus" depart="269.91" from="42064236" to="170601197"/>
    <trip id="bus618" type="bus_bus" depart="270.35" from="1118511056" to="170605263"/>
    <trip id="bus622" type="bus_bus" depart="272.10" from="1118511056" to="43947368"/>
    <trip id="bus623" type="bus_bus" depart="272.54" from="1118511056" to="43947368"/>
    <trip id="bus624" type="bus_bus" depart="272.97" from="70707218" to="43947365"/>
    <trip id="bus625" type="bus_bus" depart="273.41" from="42064236" to="170605264"/>
    <trip id="bus626" type="bus_bus" depart="273.85" from="42064236" to="43947368"/>
    <trip id="bus627" type="bus_bus" depart="274.29" from="70707218" to="170605263"/>
    <trip id="bus630" type="bus_bus" depart="275.60" from="1118511056-AddedOffRampEdge" to="1120029190"/>
    <trip id="bus631" type="bus_bus" depart="276.04" from="1118511056" to="43947368"/>
    <trip id="bus632" type="bus_bus" depart="276.47" from="277654571" to="43947365"/>
    <trip id="bus633" type="bus_bus" depart="276.91" from="42064236" to="170601197"/>
    <trip id="bus637" type="bus_bus" depart="278.66" from="206489379-AddedOnRampEdge" to="170605263"/>
    <trip id="bus638" type="bus_bus" depart="279.10" from="277654571" to="43947365"/>
    <trip id="bus640" type="bus_bus" depart="279.97" from="1118511056" to="1122897133"/>
    <trip id="bus641" type="bus_bus" depart="280.41" from="43947369#1-AddedOnRampEdge" to="170601197"/>
    <trip id="bus645" type="bus_bus" depart="282.16" from="1118511056" to="170605263"/>
    <trip id="bus646" type="bus_bus" depart="282.60" from="70707218" to="43947365"/>
    <trip id="bus647" type="bus_bus" depart="283.04" from="277654571" to="43947365"/>
    <trip id="bus648" type="bus_bus" depart="283.47" from="70707218" to="170605263"/>
    <trip id="bus649" type="bus_bus" depart="283.91" from="277654571" to="43947368"/>
    <trip id="bus654" type="bus_bus" depart="286.10" from="277654571" to="170605263"/>
    <trip id="bus656" type="bus_bus" depart="286.97" from="70707218" to="206489379"/>
    <trip id="bus658" type="bus_bus" depart="287.85" from="1118511056" to="43947368"/>
    <trip id="bus659" type="bus_bus" depart="288.29" from="1118511056" to="43947368"/>
    <trip id="bus661" type="bus_bus" depart="289.16" from="1118511056" to="170605263"/>
    <trip id="bus662" type="bus_bus" depart="289.60" from="660731151" to="170601197"/>
    <trip id="bus665" type="bus_bus" depart="290.91" from="660731151" to="170601197"/>
    <trip id="bus666" type="bus_bus" depart="291.35" from="277654571" to="170605263"/>
    <trip id="bus667" type="bus_bus" depart="291.78" from="43947369#1-AddedOnRampEdge" to="170601197"/>
    <trip id="bus677" type="bus_bus" depart="296.16" from="660731151" to="170601197"/>
    <trip id="bus678" type="bus_bus" depart="296.60" from="170601193" to="43947365"/>
    <trip id="bus680" type="bus_bus" depart="297.47" from="1118511056" to="43947368"/>
    <trip id="bus681" type="bus_bus" depart="297.91" from="70707218" to="170601197"/>
    <trip id="bus682" type="bus_bus" depart="298.35" from="660731151" to="170601197"/>
    <trip id="bus683" type="bus_bus" depart="298.78" from="70707218" to="170601197"/>
    <trip id="bus700" type="bus_bus" depart="306.22" from="206489382" to="1120029186"/>
    <trip id="bus701" type="bus_bus" depart="306.66" from="277654571" to="43947368"/>
    <trip id="bus702" type="bus_bus" depart="307.10" from="277654571" to="1139168722"/>
    <trip id="bus703" type="bus_bus" depart="307.53" from="70707218" to="43947365"/>
    <trip id="bus706" type="bus_bus" depart="308.85" from="277654571" to="43947365"/>
    <trip id="bus707" type="bus_bus" depart="309.28" from="1139168722" to="170605263"/>
    <trip id="bus710" type="bus_bus" depart="310.60" from="42064236" to="206489380"/>
    <trip id="bus713" type="bus_bus" depart="311.91" from="42064236" to="43947390#1"/>
    <trip id="bus719" type="bus_bus" depart="314.53" from="42064236" to="43947368"/>
    <trip id="bus722" type="bus_bus" depart="315.84" from="42064236" to="43947368"/>
    <trip id="bus723" type="bus_bus" depart="316.28" from="1118511056" to="43947368"/>
    <trip id="bus726" type="bus_bus" depart="317.59" from="1118511056" to="43947368-AddedOnRampEdge"/>
    <trip id="bus727" type="bus_bus" depart="318.03" from="42064236" to="43947390#1"/>
    <trip id="bus728" type="bus_bus" depart="318.47" from="42064236" to="170601197"/>
    <trip id="bus729" type="bus_bus" depart="318.91" from="660731151" to="170601197"/>
    <trip id="bus730" type="bus_bus" depart="319.34" from="277654571" to="43947368"/>
    <trip id="bus731" type="bus_bus" depart="319.78" from="70707218" to="170605263"/>
    <trip id="bus732" type="bus_bus" depart="320.22" from="1118511056" to="170605263"/>
    <trip id="bus733" type="bus_bus" depart="320.66" from="70707218" to="43947365"/>
    <trip id="bus734" type="bus_bus" depart="321.09" from="70707218" to="170605263"/>
    <trip id="bus735" type="bus_bus" depart="321.53" from="70707218" to="206489379-AddedOnRampEdge"/>
    <trip id="bus737" type="bus_bus" depart="322.41" from="42064236" to="43947368"/>
    <trip id="bus739" type="bus_bus" depart="323.28" from="42064236" to="43947368"/>
    <trip id="bus742" type="bus_bus" depart="324.59" from="206489382-AddedOffRampEdge" to="43947365"/>
    <trip id="bus743" type="bus_bus" depart="325.03" from="277654571" to="43947365"/>
    <trip id="bus745" type="bus_bus" depart="325.91" from="70707218" to="170605263"/>
    <trip id="bus746" type="bus_bus" depart="326.34" from="70707218-AddedOffRampEdge" to="170601197"/>
    <trip id="bus747" type="bus_bus" depart="326.78" from="70707218" to="43947369#1"/>
    <trip id="bus749" type="bus_bus" depart="327.66" from="277654571" to="43947368"/>
    <trip id="bus750" type="bus_bus" depart="328.09" from="43947369#1-AddedOnRampEdge" to="43947369#1-AddedOnRampEdge"/>
    <trip id="bus753" type="bus_bus" depart="329.41" from="1118511056" to="43947368"/>