<?xml version="1.0" encoding="UTF-8"?>

<!-- generated on 2024-12-04 18:09:28.995850 by main.py UNKNOWN
<configuration>
    <net-file value="/root/myvenv/nextpj/src/backend/data/scenario_1733335764/osm.net.xml.gz"/>
    <output-trip-file value="/root/myvenv/nextpj/src/backend/data/scenario_1733335764/osm.passenger.trips.xml"/>
    <route-file value="/root/myvenv/nextpj/src/backend/data/scenario_1733335764/osm.passenger.rou.xml"/>
    <prefix value="passenger"/>
    <vehicle-class value="passenger"/>
    <fringe-factor value="30.0"/>
    <validate value="True"/>
    <insertion-density value="100.0"/>
</configuration>
-->

<!-- generated on 2024-12-04 18:09:28 by Eclipse SUMO duarouter Version 1.21.0
<duarouterConfiguration xmlns:xsi="http://www.w3.org/2001/XMLSchema-instance" xsi:noNamespaceSchemaLocation="http://sumo.dlr.de/xsd/duarouterConfiguration.xsd">

    <input>
        <net-file value="/root/myvenv/nextpj/src/backend/data/scenario_1733335764/osm.net.xml.gz"/>
        <route-files value="/root/myvenv/nextpj/src/backend/data/scenario_1733335764/osm.passenger.trips.xml"/>
    </input>

    <output>
        <output-file value="/root/myvenv/nextpj/src/backend/data/scenario_1733335764/osm.passenger.rou.xml"/>
        <alternatives-output value="NUL"/>
    </output>

    <time>
        <begin value="0.0"/>
        <end value="3600.0"/>
    </time>

    <report>
        <no-warnings value="true"/>
        <ignore-errors value="true"/>
        <no-step-log value="true"/>
    </report>

</duarouterConfiguration>
-->

<routes xmlns:xsi="http://www.w3.org/2001/XMLSchema-instance" xsi:noNamespaceSchemaLocation="http://sumo.dlr.de/xsd/routes_file.xsd">
    <vType id="passenger_passenger" vClass="passenger"/>
    <vehicle id="passenger3" type="passenger_passenger" depart="1.18">
        <route edges="70707218 70707218-AddedOffRampEdge 42064105 42064105-AddedOffRampEdge 406802122 1120029183 43947369#1-AddedOnRampEdge 43947369#1 170601197"/>
    </vehicle>
    <vehicle id="passenger12" type="passenger_passenger" depart="4.72">
        <route edges="70707218 70707218-AddedOffRampEdge 42064105 42064105-AddedOffRampEdge 43947386#1 206489379-AddedOnRampEdge 206489379 170605263"/>
    </vehicle>
    <vehicle id="passenger14" type="passenger_passenger" depart="5.51">
        <route edges="70707218 70707218-AddedOffRampEdge 1120029181 1120029186 43947365-AddedOnRampEdge 43947365"/>
    </vehicle>
    <vehicle id="passenger16" type="passenger_passenger" depart="6.30">
        <route edges="42064236 170605264 170605269 1120029182 1120029183 43947369#1-AddedOnRampEdge"/>
    </vehicle>
    <vehicle id="passenger19" type="passenger_passenger" depart="7.48">
        <route edges="70707218 70707218-AddedOffRampEdge 1120029181 1120029186 43947365-AddedOnRampEdge 43947365"/>
    </vehicle>
    <vehicle id="passenger21" type="passenger_passenger" depart="8.27">
        <route edges="1139168722 206489379-AddedOnRampEdge 206489379 170605263"/>
    </vehicle>
    <vehicle id="passenger26" type="passenger_passenger" depart="10.24">
        <route edges="206489382-AddedOffRampEdge 43947390#1 277653336 206489380 43947382 43947368-AddedOnRampEdge 43947368"/>
    </vehicle>
    <vehicle id="passenger28" type="passenger_passenger" depart="11.02">
        <route edges="1120029181 1120029186 43947365-AddedOnRampEdge 43947365"/>
    </vehicle>
    <vehicle id="passenger29" type="passenger_passenger" depart="11.42">
        <route edges="1118511056-AddedOffRampEdge 1120029196 1139168722 206489379-AddedOnRampEdge 206489379 170605263"/>
    </vehicle>
    <vehicle id="passenger30" type="passenger_passenger" depart="11.81">
        <route edges="70707218 70707218-AddedOffRampEdge 1120029181 1120029186 43947365-AddedOnRampEdge 43947365"/>
    </vehicle>
    <vehicle id="passenger31" type="passenger_passenger" depart="12.21">
        <route edges="42064236 170605264 170605269 206489382 206489382-AddedOffRampEdge 42064232 1120029186 43947365-AddedOnRampEdge 43947365"/>
    </vehicle>
    <vehicle id="passenger36" type="passenger_passenger" depart="14.17">
        <route edges="70707218 70707218-AddedOffRampEdge 42064105 42064105-AddedOffRampEdge 43947386#1 206489379-AddedOnRampEdge 206489379 170605263"/>
    </vehicle>
    <vehicle id="passenger38" type="passenger_passenger" depart="14.96">
        <route edges="70707218 70707218-AddedOffRampEdge 42064105 42064105-AddedOffRampEdge 43947386#1 206489379-AddedOnRampEdge 206489379 170605263"/>
    </vehicle>
    <vehicle id="passenger40" type="passenger_passenger" depart="15.75">
        <route edges="42064236 170605264 170605269 1120029182 1120029183 43947369#1-AddedOnRampEdge 43947369#1 170601197"/>
    </vehicle>
    <vehicle id="passenger41" type="passenger_passenger" depart="16.14">
        <route edges="42064236 170605264 170605269 206489382 206489382-AddedOffRampEdge 43947390#1 277653336 206489380 43947382 43947368-AddedOnRampEdge 43947368"/>
    </vehicle>
    <vehicle id="passenger47" type="passenger_passenger" depart="18.50">
        <route edges="1118511056 1118511056-AddedOffRampEdge 1120029196 1139168722 206489379-AddedOnRampEdge 206489379 170605263"/>
    </vehicle>
    <vehicle id="passenger48" type="passenger_passenger" depart="18.90">
        <route edges="70707218-AddedOffRampEdge 42064105 42064105-AddedOffRampEdge 406802122"/>
    </vehicle>
    <vehicle id="passenger52" type="passenger_passenger" depart="20.47">
        <route edges="206489382-AddedOffRampEdge 42064232 1120029186 43947365-AddedOnRampEdge 43947365"/>
    </vehicle>
    <vehicle id="passenger53" type="passenger_passenger" depart="20.87">
        <route edges="1118511056 1118511056-AddedOffRampEdge 1120029196 1139168722 206489379-AddedOnRampEdge 206489379 170605263"/>
    </vehicle>
    <vehicle id="passenger55" type="passenger_passenger" depart="21.65">
        <route edges="70707218 70707218-AddedOffRampEdge 42064105 42064105-AddedOffRampEdge 406802122 1120029183 43947369#1-AddedOnRampEdge 43947369#1 170601197"/>
    </vehicle>
    <vehicle id="passenger56" type="passenger_passenger" depart="22.05">
        <route edges="42064236 170605264 170605269 1120029182 1120029183 43947369#1-AddedOnRampEdge 43947369#1 170601197"/>
    </vehicle>
    <vehicle id="passenger58" type="passenger_passenger" depart="22.84">
        <route edges="277654571 170601193 43947365-AddedOnRampEdge 43947365"/>
    </vehicle>
    <vehicle id="passenger59" type="passenger_passenger" depart="23.23">
        <route edges="42064236 170605264 170605269 1120029182 1120029183 43947369#1-AddedOnRampEdge 43947369#1 170601197"/>
    </vehicle>
    <vehicle id="passenger62" type="passenger_passenger" depart="24.41">
        <route edges="1118511056 1118511056-AddedOffRampEdge 1120029196 1139168722 206489379-AddedOnRampEdge 206489379 170605263"/>
    </vehicle>
    <vehicle id="passenger63" type="passenger_passenger" depart="24.80">
        <route edges="1118511056 1118511056-AddedOffRampEdge 1122897133 1120029190 1120029189 43947368-AddedOnRampEdge 43947368"/>
    </vehicle>
    <vehicle id="passenger68" type="passenger_passenger" depart="26.77">
        <route edges="1118511056 1118511056-AddedOffRampEdge 1122897133 1120029190 1120029189 43947368-AddedOnRampEdge 43947368"/>
    </vehicle>
    <vehicle id="passenger69" type="passenger_passenger" depart="27.17">
        <route edges="660731151 43947369#1-AddedOnRampEdge 43947369#1 170601197"/>
    </vehicle>
    <vehicle id="passenger71" type="passenger_passenger" depart="27.95">
        <route edges="206489382 206489382-AddedOffRampEdge 43947390#1 277653336 206489380 43947382 43947368-AddedOnRampEdge 43947368"/>
    </vehicle>
    <vehicle id="passenger73" type="passenger_passenger" depart="28.74">
        <route edges="42064236 170605264 170605269 206489382 206489382-AddedOffRampEdge 42064232 1120029186 43947365-AddedOnRampEdge 43947365"/>
    </vehicle>
    <vehicle id="passenger74" type="passenger_passenger" depart="29.13">
        <route edges="1120029191 1139168722 206489379-AddedOnRampEdge 206489379 170605263"/>
    </vehicle>
    <vehicle id="passenger75" type="passenger_passenger" depart="29.53">
        <route edges="70707218-AddedOffRampEdge 1120029181 1120029186 43947365-AddedOnRampEdge 43947365"/>
    </vehicle>
    <vehicle id="passenger78" type="passenger_passenger" depart="30.71">
        <route edges="277654571 170601193 43947365-AddedOnRampEdge 43947365"/>
    </vehicle>
    <vehicle id="passenger83" type="passenger_passenger" depart="32.68">
        <route edges="170605264 170605269 206489382 206489382-AddedOffRampEdge 42064232 1120029186 43947365-AddedOnRampEdge 43947365"/>
    </vehicle>
    <vehicle id="passenger85" type="passenger_passenger" depart="33.47">
        <route edges="70707218 70707218-AddedOffRampEdge 1120029181 1120029186 43947365-AddedOnRampEdge 43947365"/>
    </vehicle>
    <vehicle id="passenger86" type="passenger_passenger" depart="33.86">
        <route edges="42064236 170605264 170605269 206489382 206489382-AddedOffRampEdge 43947390#1 277653336 206489380 43947382 43947368-AddedOnRampEdge 43947368"/>
    </vehicle>
    <vehicle id="passenger87" type="passenger_passenger" depart="34.25">
        <route edges="660731151 43947369#1-AddedOnRampEdge 43947369#1 170601197"/>
    </vehicle>
    <vehicle id="passenger88" type="passenger_passenger" depart="34.65">
        <route edges="1118511056 1118511056-AddedOffRampEdge 1120029196 1139168722 206489379-AddedOnRampEdge 206489379 170605263"/>
    </vehicle>
    <vehicle id="passenger89" type="passenger_passenger" depart="35.04">
        <route edges="277654571 1122897134 1120029191 1139168722 206489379-AddedOnRampEdge 206489379 170605263"/>
    </vehicle>
    <vehicle id="passenger91" type="passenger_passenger" depart="35.83">
        <route edges="70707218 70707218-AddedOffRampEdge 42064105 42064105-AddedOffRampEdge 406802122 1120029183 43947369#1-AddedOnRampEdge 43947369#1 170601197"/>
    </vehicle>
    <vehicle id="passenger92" type="passenger_passenger" depart="36.22">
        <route edges="277654571 1122897134 1120029191 1139168722 206489379-AddedOnRampEdge 206489379 170605263"/>
    </vehicle>
    <vehicle id="passenger93" type="passenger_passenger" depart="36.62">
        <route edges="70707218 70707218-AddedOffRampEdge 42064105 42064105-AddedOffRampEdge 406802122 1120029183 43947369#1-AddedOnRampEdge 43947369#1 170601197"/>
    </vehicle>
    <vehicle id="passenger101" type="passenger_passenger" depart="39.76">
        <route edges="70707218 70707218-AddedOffRampEdge 42064105 42064105-AddedOffRampEdge 406802122 1120029183 43947369#1-AddedOnRampEdge 43947369#1 170601197"/>
    </vehicle>
    <vehicle id="passenger102" type="passenger_passenger" depart="40.16">
        <route edges="42064236 170605264 170605269 1120029182 1120029183 43947369#1-AddedOnRampEdge 43947369#1 170601197"/>
    </vehicle>
    <vehicle id="passenger105" type="passenger_passenger" depart="41.34">
        <route edges="206489382 206489382-AddedOffRampEdge 43947390#1 277653336 206489380 43947382 43947368-AddedOnRampEdge 43947368"/>
    </vehicle>
    <vehicle id="passenger106" type="passenger_passenger" depart="41.73">
        <route edges="42064105 42064105-AddedOffRampEdge 43947386#1 206489379-AddedOnRampEdge 206489379 170605263"/>
    </vehicle>
    <vehicle id="passenger107" type="passenger_passenger" depart="42.13">
        <route edges="70707218 70707218-AddedOffRampEdge"/>
    </vehicle>
    <vehicle id="passenger108" type="passenger_passenger" depart="42.52">
        <route edges="42064236 170605264 170605269 206489382 206489382-AddedOffRampEdge 42064232 1120029186 43947365-AddedOnRampEdge 43947365"/>
    </vehicle>
    <vehicle id="passenger109" type="passenger_passenger" depart="42.91">
        <route edges="1118511056 1118511056-AddedOffRampEdge 1120029196 1139168722 206489379-AddedOnRampEdge 206489379 170605263"/>
    </vehicle>
    <vehicle id="passenger110" type="passenger_passenger" depart="43.31">
        <route edges="70707218 70707218-AddedOffRampEdge 1120029181 1120029186 43947365-AddedOnRampEdge 43947365"/>
    </vehicle>
    <vehicle id="passenger111" type="passenger_passenger" depart="43.70">
        <route edges="42064236 170605264 170605269 206489382 206489382-AddedOffRampEdge 42064232 1120029186 43947365-AddedOnRampEdge 43947365"/>
    </vehicle>
    <vehicle id="passenger113" type="passenger_passenger" depart="44.49">
        <route edges="42064236 170605264 170605269 206489382 206489382-AddedOffRampEdge 43947390#1 277653336 206489380 43947382 43947368-AddedOnRampEdge 43947368"/>
    </vehicle>
    <vehicle id="passenger114" type="passenger_passenger" depart="44.88">
        <route edges="1118511056 1118511056-AddedOffRampEdge 1122897133 1120029190 1120029189 43947368-AddedOnRampEdge"/>
    </vehicle>
    <vehicle id="passenger116" type="passenger_passenger" depart="45.67">
        <route edges="42064236 170605264 170605269 206489382 206489382-AddedOffRampEdge 42064232 1120029186 43947365-AddedOnRampEdge 43947365"/>
    </vehicle>
    <vehicle id="passenger117" type="passenger_passenger" depart="46.06">
        <route edges="170605264 170605269 1120029182 1120029183 43947369#1-AddedOnRampEdge 43947369#1 170601197"/>
    </vehicle>
    <vehicle id="passenger118" type="passenger_passenger" depart="46.46">
        <route edges="70707218 70707218-AddedOffRampEdge 42064105 42064105-AddedOffRampEdge 406802122 1120029183 43947369#1-AddedOnRampEdge 43947369#1 170601197"/>
    </vehicle>
    <vehicle id="passenger119" type="passenger_passenger" depart="46.85">
        <route edges="42064236 170605264 170605269 206489382 206489382-AddedOffRampEdge 42064232 1120029186 43947365-AddedOnRampEdge 43947365"/>
    </vehicle>
    <vehicle id="passenger120" type="passenger_passenger" depart="47.25">
        <route edges="277654571 170601193 43947365-AddedOnRampEdge 43947365"/>
    </vehicle>
    <vehicle id="passenger121" type="passenger_passenger" depart="47.64">
        <route edges="42064236 170605264 170605269 206489382 206489382-AddedOffRampEdge 43947390#1 277653336 206489380 43947382 43947368-AddedOnRampEdge 43947368"/>
    </vehicle>
    <vehicle id="passenger125" type="passenger_passenger" depart="49.21">
        <route edges="277654571 170601193 43947365-AddedOnRampEdge 43947365"/>
    </vehicle>
    <vehicle id="passenger126" type="passenger_passenger" depart="49.61">
        <route edges="1118511056 1118511056-AddedOffRampEdge 1120029196 1139168722 206489379-AddedOnRampEdge 206489379 170605263"/>
    </vehicle>
    <vehicle id="passenger127" type="passenger_passenger" depart="50.00">
        <route edges="70707218-AddedOffRampEdge"/>
    </vehicle>
    <vehicle id="passenger129" type="passenger_passenger" depart="50.79">
        <route edges="206489382 206489382-AddedOffRampEdge 43947390#1 277653336 206489380 43947382 43947368-AddedOnRampEdge 43947368"/>
    </vehicle>
    <vehicle id="passenger132" type="passenger_passenger" depart="51.97">
        <route edges="70707218 70707218-AddedOffRampEdge 1120029181 1120029186 43947365-AddedOnRampEdge 43947365"/>
    </vehicle>
    <vehicle id="passenger133" type="passenger_passenger" depart="52.36">
        <route edges="42064236 170605264 170605269 206489382 206489382-AddedOffRampEdge 43947390#1"/>
    </vehicle>
    <vehicle id="passenger136" type="passenger_passenger" depart="53.54">
        <route edges="43947390#1 277653336 206489380 43947382 43947368-AddedOnRampEdge 43947368"/>
    </vehicle>
    <vehicle id="passenger140" type="passenger_passenger" depart="55.12">
        <route edges="660731151 43947369#1-AddedOnRampEdge 43947369#1 170601197"/>
    </vehicle>
    <vehicle id="passenger142" type="passenger_passenger" depart="55.91">
        <route edges="42064236 170605264 170605269 206489382 206489382-AddedOffRampEdge 43947390#1 277653336 206489380 43947382 43947368-AddedOnRampEdge 43947368"/>
    </vehicle>
    <vehicle id="passenger143" type="passenger_passenger" depart="56.30">
        <route edges="70707218 70707218-AddedOffRampEdge 42064105 42064105-AddedOffRampEdge 406802122 1120029183 43947369#1-AddedOnRampEdge 43947369#1 170601197"/>
    </vehicle>
    <vehicle id="passenger145" type="passenger_passenger" depart="57.09">
        <route edges="1118511056 1118511056-AddedOffRampEdge 1122897133 1120029190 1120029189 43947368-AddedOnRampEdge 43947368"/>
    </vehicle>
    <vehicle id="passenger149" type="passenger_passenger" depart="58.66">
        <route edges="1118511056 1118511056-AddedOffRampEdge 1122897133 1120029190 1120029189 43947368-AddedOnRampEdge 43947368"/>
    </vehicle>
    <vehicle id="passenger150" type="passenger_passenger" depart="59.06">
        <route edges="70707218 70707218-AddedOffRampEdge 42064105 42064105-AddedOffRampEdge"/>
    </vehicle>
    <vehicle id="passenger151" type="passenger_passenger" depart="59.45">
        <route edges="70707218 70707218-AddedOffRampEdge 1120029181 1120029186 43947365-AddedOnRampEdge 43947365"/>
    </vehicle>
    <vehicle id="passenger153" type="passenger_passenger" depart="60.24">
        <route edges="277654571 1122897134 41844004 1120029190 1120029189 43947368-AddedOnRampEdge 43947368"/>
    </vehicle>
    <vehicle id="passenger155" type="passenger_passenger" depart="61.03">
        <route edges="70707218 70707218-AddedOffRampEdge 42064105 42064105-AddedOffRampEdge 406802122 1120029183 43947369#1-AddedOnRampEdge 43947369#1 170601197"/>
    </vehicle>
    <vehicle id="passenger158" type="passenger_passenger" depart="62.21">
        <route edges="277654571 170601193 43947365-AddedOnRampEdge 43947365"/>
    </vehicle>
    <vehicle id="passenger159" type="passenger_passenger" depart="62.60">
        <route edges="1118511056 1118511056-AddedOffRampEdge 1122897133 1120029190 1120029189 43947368-AddedOnRampEdge 43947368"/>
    </vehicle>
    <vehicle id="passenger163" type="passenger_passenger" depart="64.18">
        <route edges="277654571 1122897134 41844004 1120029190 1120029189 43947368-AddedOnRampEdge 43947368"/>
    </vehicle>
    <vehicle id="passenger165" type="passenger_passenger" depart="64.96">
        <route edges="660731151 43947369#1-AddedOnRampEdge 43947369#1 170601197"/>
    </vehicle>
    <vehicle id="passenger166" type="passenger_passenger" depart="65.36">
        <route edges="660731151 43947369#1-AddedOnRampEdge 43947369#1 170601197"/>
    </vehicle>
    <vehicle id="passenger168" type="passenger_passenger" depart="66.14">
        <route edges="1122897134 41844004 1120029190 1120029189 43947368-AddedOnRampEdge 43947368"/>
    </vehicle>
    <vehicle id="passenger169" type="passenger_passenger" depart="66.54">
        <route edges="42064105-AddedOffRampEdge 43947386#1 206489379-AddedOnRampEdge 206489379 170605263"/>
    </vehicle>
    <vehicle id="passenger170" type="passenger_passenger" depart="66.93">
        <route edges="660731151 43947369#1-AddedOnRampEdge 43947369#1 170601197"/>
    </vehicle>
    <vehicle id="passenger172" type="passenger_passenger" depart="67.72">
        <route edges="277654571 1122897134 41844004 1120029190 1120029189 43947368-AddedOnRampEdge 43947368"/>
    </vehicle>
    <vehicle id="passenger173" type="passenger_passenger" depart="68.11">
        <route edges="70707218 70707218-AddedOffRampEdge 42064105 42064105-AddedOffRampEdge 406802122 1120029183 43947369#1-AddedOnRampEdge 43947369#1 170601197"/>
    </vehicle>
    <vehicle id="passenger176" type="passenger_passenger" depart="69.29">
        <route edges="70707218 70707218-AddedOffRampEdge 42064105 42064105-AddedOffRampEdge 406802122 1120029183 43947369#1-AddedOnRampEdge 43947369#1 170601197"/>
    </vehicle>
    <vehicle id="passenger177" type="passenger_passenger" depart="69.69">
        <route edges="70707218 70707218-AddedOffRampEdge 42064105 42064105-AddedOffRampEdge 406802122 1120029183 43947369#1-AddedOnRampEdge 43947369#1 170601197"/>
    </vehicle>
    <vehicle id="passenger178" type="passenger_passenger" depart="70.08">
        <route edges="70707218 70707218-AddedOffRampEdge 42064105 42064105-AddedOffRampEdge 406802122 1120029183 43947369#1-AddedOnRampEdge 43947369#1 170601197"/>
    </vehicle>
    <vehicle id="passenger179" type="passenger_passenger" depart="70.47">
        <route edges="1118511056 1118511056-AddedOffRampEdge 1120029196 1139168722 206489379-AddedOnRampEdge 206489379 170605263"/>
    </vehicle>
    <vehicle id="passenger181" type="passenger_passenger" depart="71.26">
        <route edges="42064236 170605264 170605269 206489382"/>
    </vehicle>
    <vehicle id="passenger182" type="passenger_passenger" depart="71.66">
        <route edges="277654571 170601193 43947365-AddedOnRampEdge 43947365"/>
    </vehicle>
    <vehicle id="passenger184" type="passenger_passenger" depart="72.44">
        <route edges="1118511056 1118511056-AddedOffRampEdge 1122897133 1120029190 1120029189 43947368-AddedOnRampEdge 43947368"/>
    </vehicle>
    <vehicle id="passenger185" type="passenger_passenger" depart="72.84">
        <route edges="42064236 170605264 170605269 206489382 206489382-AddedOffRampEdge 42064232 1120029186 43947365-AddedOnRampEdge 43947365"/>
    </vehicle>
    <vehicle id="passenger187" type="passenger_passenger" depart="73.62">
        <route edges="277654571 1122897134"/>
    </vehicle>
    <vehicle id="passenger189" type="passenger_passenger" depart="74.41">
        <route edges="277654571 1122897134 41844004 1120029190 1120029189 43947368-AddedOnRampEdge 43947368"/>
    </vehicle>
    <vehicle id="passenger191" type="passenger_passenger" depart="75.20">
        <route edges="277654571 1122897134 1120029191 1139168722 206489379-AddedOnRampEdge 206489379 170605263"/>
    </vehicle>
    <vehicle id="passenger192" type="passenger_passenger" depart="75.59">
        <route edges="277654571 1122897134 1120029191 1139168722 206489379-AddedOnRampEdge 206489379 170605263"/>
    </vehicle>
    <vehicle id="passenger193" type="passenger_passenger" depart="75.99">
        <route edges="1118511056 1118511056-AddedOffRampEdge 1120029196 1139168722 206489379-AddedOnRampEdge 206489379 170605263"/>
    </vehicle>
    <vehicle id="passenger194" type="passenger_passenger" depart="76.38">
        <route edges="70707218 70707218-AddedOffRampEdge 1120029181 1120029186 43947365-AddedOnRampEdge 43947365"/>
    </vehicle>
    <vehicle id="passenger195" type="passenger_passenger" depart="76.77">
        <route edges="70707218 70707218-AddedOffRampEdge 1120029181 1120029186 43947365-AddedOnRampEdge 43947365"/>
    </vehicle>
    <vehicle id="passenger197" type="passenger_passenger" depart="77.56">
        <route edges="1118511056 1118511056-AddedOffRampEdge 1120029196 1139168722 206489379-AddedOnRampEdge 206489379 170605263"/>
    </vehicle>
    <vehicle id="passenger198" type="passenger_passenger" depart="77.96">
        <route edges="277654571 170601193 43947365-AddedOnRampEdge 43947365"/>
    </vehicle>
    <vehicle id="passenger200" type="passenger_passenger" depart="78.74">
        <route edges="406802122 1120029183 43947369#1-AddedOnRampEdge 43947369#1 170601197"/>
    </vehicle>
    <vehicle id="passenger201" type="passenger_passenger" depart="79.14">
        <route edges="42064236 170605264 170605269 206489382 206489382-AddedOffRampEdge 43947390#1 277653336 206489380 43947382 43947368-AddedOnRampEdge 43947368"/>
    </vehicle>
    <vehicle id="passenger202" type="passenger_passenger" depart="79.53">
        <route edges="660731151 43947369#1-AddedOnRampEdge 43947369#1 170601197"/>
    </vehicle>
    <vehicle id="passenger206" type="passenger_passenger" depart="81.10">
        <route edges="660731151 43947369#1-AddedOnRampEdge 43947369#1 170601197"/>
    </vehicle>
    <vehicle id="passenger210" type="passenger_passenger" depart="82.68">
        <route edges="277654571 170601193 43947365-AddedOnRampEdge 43947365"/>
    </vehicle>
    <vehicle id="passenger212" type="passenger_passenger" depart="83.47">
        <route edges="42064236 170605264 170605269 1120029182 1120029183 43947369#1-AddedOnRampEdge 43947369#1 170601197"/>
    </vehicle>
    <vehicle id="passenger215" type="passenger_passenger" depart="84.65">
        <route edges="1118511056 1118511056-AddedOffRampEdge 1120029196 1139168722 206489379-AddedOnRampEdge 206489379 170605263"/>
    </vehicle>
    <vehicle id="passenger220" type="passenger_passenger" depart="86.62">
        <route edges="43947390#1"/>
    </vehicle>
    <vehicle id="passenger221" type="passenger_passenger" depart="87.01">
        <route edges="42064236 170605264 170605269 206489382 206489382-AddedOffRampEdge 43947390#1 277653336 206489380 43947382 43947368-AddedOnRampEdge 43947368"/>
    </vehicle>
    <vehicle id="passenger222" type="passenger_passenger" depart="87.40">
        <route edges="70707218 70707218-AddedOffRampEdge 1120029181 1120029186 43947365-AddedOnRampEdge 43947365"/>
    </vehicle>
    <vehicle id="passenger225" type="passenger_passenger" depart="88.59">
        <route edges="70707218 70707218-AddedOffRampEdge 1120029181 1120029186 43947365-AddedOnRampEdge 43947365"/>
    </vehicle>
    <vehicle id="passenger226" type="passenger_passenger" depart="88.98">
        <route edges="42064236 170605264 170605269 1120029182 1120029183 43947369#1-AddedOnRampEdge 43947369#1 170601197"/>
    </vehicle>
    <vehicle id="passenger229" type="passenger_passenger" depart="90.16">
        <route edges="42064236 170605264 170605269 1120029182 1120029183 43947369#1-AddedOnRampEdge 43947369#1 170601197"/>
    </vehicle>
    <vehicle id="passenger230" type="passenger_passenger" depart="90.55">
        <route edges="1118511056 1118511056-AddedOffRampEdge 1120029196 1139168722 206489379-AddedOnRampEdge 206489379 170605263"/>
    </vehicle>
    <vehicle id="passenger232" type="passenger_passenger" depart="91.34">
        <route edges="42064236 170605264 170605269 1120029182 1120029183 43947369#1-AddedOnRampEdge 43947369#1 170601197"/>
    </vehicle>
    <vehicle id="passenger233" type="passenger_passenger" depart="91.74">
        <route edges="170601193 43947365-AddedOnRampEdge 43947365"/>
    </vehicle>
    <vehicle id="passenger237" type="passenger_passenger" depart="93.31">
        <route edges="277654571 1122897134 41844004 1120029190 1120029189 43947368-AddedOnRampEdge 43947368"/>
    </vehicle>
    <vehicle id="passenger238" type="passenger_passenger" depart="93.70">
        <route edges="42064236 170605264 170605269 206489382 206489382-AddedOffRampEdge 42064232 1120029186 43947365-AddedOnRampEdge 43947365"/>
    </vehicle>
    <vehicle id="passenger241" type="passenger_passenger" depart="94.88">
        <route edges="277654571 170601193 43947365-AddedOnRampEdge"/>
    </vehicle>
    <vehicle id="passenger243" type="passenger_passenger" depart="95.67">
        <route edges="277654571 170601193 43947365-AddedOnRampEdge 43947365"/>
    </vehicle>
    <vehicle id="passenger244" type="passenger_passenger" depart="96.07">
        <route edges="42064236 170605264 170605269 206489382 206489382-AddedOffRampEdge 42064232 1120029186 43947365-AddedOnRampEdge 43947365"/>
    </vehicle>
    <vehicle id="passenger247" type="passenger_passenger" depart="97.25">
        <route edges="277654571 170601193 43947365-AddedOnRampEdge 43947365"/>
    </vehicle>
    <vehicle id="passenger250" type="passenger_passenger" depart="98.43">
        <route edges="42064236 170605264 170605269 206489382 206489382-AddedOffRampEdge 42064232 1120029186"/>
    </vehicle>
    <vehicle id="passenger251" type="passenger_passenger" depart="98.82">
        <route edges="277654571 170601193 43947365-AddedOnRampEdge 43947365"/>
    </vehicle>
    <vehicle id="passenger253" type="passenger_passenger" depart="99.61">
        <route edges="1118511056 1118511056-AddedOffRampEdge 1120029196 1139168722 206489379-AddedOnRampEdge 206489379 170605263"/>
    </vehicle>
    <vehicle id="passenger254" type="passenger_passenger" depart="100.00">
        <route edges="1118511056 1118511056-AddedOffRampEdge 1120029196 1139168722 206489379-AddedOnRampEdge 206489379 170605263"/>
    </vehicle>
    <vehicle id="passenger255" type="passenger_passenger" depart="100.40">
        <route edges="1120029196 1139168722 206489379-AddedOnRampEdge 206489379 170605263"/>
    </vehicle>
    <vehicle id="passenger260" type="passenger_passenger" depart="102.37">
        <route edges="70707218-AddedOffRampEdge 42064105 42064105-AddedOffRampEdge 43947386#1 206489379-AddedOnRampEdge 206489379 170605263"/>
    </vehicle>
    <vehicle id="passenger263" type="passenger_passenger" depart="103.55">
        <route edges="70707218 70707218-AddedOffRampEdge 42064105 42064105-AddedOffRampEdge 406802122 1120029183 43947369#1-AddedOnRampEdge 43947369#1 170601197"/>
    </vehicle>
    <vehicle id="passenger266" type="passenger_passenger" depart="104.73">
        <route edges="42064236 170605264 170605269 1120029182 1120029183 43947369#1-AddedOnRampEdge 43947369#1 170601197"/>
    </vehicle>
    <vehicle id="passenger269" type="passenger_passenger" depart="105.91">
        <route edges="660731151 43947369#1-AddedOnRampEdge 43947369#1 170601197"/>
    </vehicle>
    <vehicle id="passenger270" type="passenger_passenger" depart="106.30">
        <route edges="660731151 43947369#1-AddedOnRampEdge 43947369#1"/>
    </vehicle>
    <vehicle id="passenger272" type="passenger_passenger" depart="107.09">
        <route edges="277654571 170601193 43947365-AddedOnRampEdge 43947365"/>
    </vehicle>
    <vehicle id="passenger273" type="passenger_passenger" depart="107.48">
        <route edges="70707218 70707218-AddedOffRampEdge 42064105 42064105-AddedOffRampEdge 43947386#1 206489379-AddedOnRampEdge 206489379 170605263"/>
    </vehicle>
    <vehicle id="passenger276" type="passenger_passenger" depart="108.66">
        <route edges="1118511056 1118511056-AddedOffRampEdge 1122897133 1120029190 1120029189 43947368-AddedOnRampEdge 43947368"/>
    </vehicle>